version 2
run ADD_ForwarGame-8-20170911-16:00:02-21567
attr configname ADD_ForwarGame
attr datetime 20170911-16:00:02
attr experiment ADD_ForwarGame
attr inifile omnetpp.ini
attr iterationvars ""
attr iterationvars2 $repetition=8
attr measurement ""
attr network RSUExampleScenario
attr processid 21567
attr repetition 8
attr replication #8
attr resultdir results
attr runnumber 8
attr seedset 8

statistic RSUExampleScenario.node[109].appl 	numberOfNodes:stats
field count 0
field mean -nan
field stddev -nan
field sum 0
field sqrsum 0
field min -nan
field max -nan
attr interpolationmode  none
attr source  numberOfNodes
attr title  "numberOfNodes, stats"
statistic RSUExampleScenario.node[109].appl 	distanceMsgRx:stats
field count 0
field mean -nan
field stddev -nan
field sum 0
field sqrsum 0
field min -nan
field max -nan
attr interpolationmode  none
attr source  distanceMsgRx
attr title  "distanceMsgRx, stats"
statistic RSUExampleScenario.node[109].appl 	beaconMsgCounterRx:stats
field count 41
field mean 21
field stddev 11.979148550711
field sum 861
field sqrsum 23821
field min 1
field max 41
attr interpolationmode  none
attr source  beaconMsgCounterRx
attr title  "beaconMsgCounterRx, stats"
statistic RSUExampleScenario.node[109].appl 	warningMsgCounterRx:stats
field count 1
field mean 1
field stddev -nan
field sum 1
field sqrsum 1
field min 1
field max 1
attr interpolationmode  none
attr source  warningMsgCounterRx
attr title  "warningMsgCounterRx, stats"
statistic RSUExampleScenario.node[109].appl 	hopCount:stats
field count 1
field mean 12
field stddev -nan
field sum 12
field sqrsum 144
field min 12
field max 12
attr interpolationmode  none
attr source  arrival1
attr title  "hop count, stats"
statistic RSUExampleScenario.node[109].appl 	delayFirstNewMessage:stats
field count 1
field mean 0.008848888118
field stddev -nan
field sum 0.008848888118
field sqrsum 7.8302820924882e-05
field min 0.008848888118
field max 0.008848888118
attr interpolationmode  none
attr source  arrival
attr title  "delayFirstNewMessage, stats"
scalar RSUExampleScenario.node[109].nic.phy80211p 	busyTime 	0.00056857142857138
scalar RSUExampleScenario.node[109].nic.mac1609_4 	ReceivedUnicastPackets 	0
scalar RSUExampleScenario.node[109].nic.mac1609_4 	ReceivedBroadcasts 	42
scalar RSUExampleScenario.node[109].nic.mac1609_4 	SentPackets 	11
scalar RSUExampleScenario.node[109].nic.mac1609_4 	SNIRLostPackets 	2
scalar RSUExampleScenario.node[109].nic.mac1609_4 	RXTXLostPackets 	0
scalar RSUExampleScenario.node[109].nic.mac1609_4 	TotalLostPackets 	2
scalar RSUExampleScenario.node[109].nic.mac1609_4 	DroppedPacketsInMac 	0
scalar RSUExampleScenario.node[109].nic.mac1609_4 	TooLittleTime 	0
scalar RSUExampleScenario.node[109].nic.mac1609_4 	TimesIntoBackoff 	11
scalar RSUExampleScenario.node[109].nic.mac1609_4 	SlotsBackoff 	12
scalar RSUExampleScenario.node[109].nic.mac1609_4 	NumInternalContention 	0
scalar RSUExampleScenario.node[109].nic.mac1609_4 	totalBusyTime 	0.007739
scalar RSUExampleScenario.node[109].veinsmobility 	startTime 	0.1
scalar RSUExampleScenario.node[109].veinsmobility 	totalTime 	11.1
scalar RSUExampleScenario.node[109].veinsmobility 	stopTime 	11.3
scalar RSUExampleScenario.node[109].veinsmobility 	minSpeed 	0.24958627339918
scalar RSUExampleScenario.node[109].veinsmobility 	maxSpeed 	13.887960203139
scalar RSUExampleScenario.node[109].veinsmobility 	totalDistance 	107.91199385472
scalar RSUExampleScenario.node[109].veinsmobility 	totalCO2Emission 	43.621472059145
statistic RSUExampleScenario.node[176].appl 	numberOfNodes:stats
field count 0
field mean -nan
field stddev -nan
field sum 0
field sqrsum 0
field min -nan
field max -nan
attr interpolationmode  none
attr source  numberOfNodes
attr title  "numberOfNodes, stats"
statistic RSUExampleScenario.node[176].appl 	distanceMsgRx:stats
field count 0
field mean -nan
field stddev -nan
field sum 0
field sqrsum 0
field min -nan
field max -nan
attr interpolationmode  none
attr source  distanceMsgRx
attr title  "distanceMsgRx, stats"
statistic RSUExampleScenario.node[176].appl 	beaconMsgCounterRx:stats
field count 418
field mean 209.5
field stddev 120.81045760474
field sum 87571
field sqrsum 24432309
field min 1
field max 418
attr interpolationmode  none
attr source  beaconMsgCounterRx
attr title  "beaconMsgCounterRx, stats"
statistic RSUExampleScenario.node[176].appl 	warningMsgCounterRx:stats
field count 15
field mean 8
field stddev 4.4721359549996
field sum 120
field sqrsum 1240
field min 1
field max 15
attr interpolationmode  none
attr source  warningMsgCounterRx
attr title  "warningMsgCounterRx, stats"
statistic RSUExampleScenario.node[176].appl 	hopCount:stats
field count 15
field mean 6.1333333333333
field stddev 2.0655911179773
field sum 92
field sqrsum 624
field min 3
field max 8
attr interpolationmode  none
attr source  arrival1
attr title  "hop count, stats"
statistic RSUExampleScenario.node[176].appl 	delayFirstNewMessage:stats
field count 1
field mean 0.005532447121
field stddev -nan
field sum 0.005532447121
field sqrsum 3.0607971146661e-05
field min 0.005532447121
field max 0.005532447121
attr interpolationmode  none
attr source  arrival
attr title  "delayFirstNewMessage, stats"
scalar RSUExampleScenario.node[176].nic.phy80211p 	busyTime 	0.0033294240837694
scalar RSUExampleScenario.node[176].nic.mac1609_4 	ReceivedUnicastPackets 	0
scalar RSUExampleScenario.node[176].nic.mac1609_4 	ReceivedBroadcasts 	433
scalar RSUExampleScenario.node[176].nic.mac1609_4 	SentPackets 	29
scalar RSUExampleScenario.node[176].nic.mac1609_4 	SNIRLostPackets 	12
scalar RSUExampleScenario.node[176].nic.mac1609_4 	RXTXLostPackets 	1
scalar RSUExampleScenario.node[176].nic.mac1609_4 	TotalLostPackets 	13
scalar RSUExampleScenario.node[176].nic.mac1609_4 	DroppedPacketsInMac 	0
scalar RSUExampleScenario.node[176].nic.mac1609_4 	TooLittleTime 	0
scalar RSUExampleScenario.node[176].nic.mac1609_4 	TimesIntoBackoff 	29
scalar RSUExampleScenario.node[176].nic.mac1609_4 	SlotsBackoff 	47
scalar RSUExampleScenario.node[176].nic.mac1609_4 	NumInternalContention 	0
scalar RSUExampleScenario.node[176].nic.mac1609_4 	totalBusyTime 	0.066229
scalar RSUExampleScenario.node[176].veinsmobility 	startTime 	0.1
scalar RSUExampleScenario.node[176].veinsmobility 	totalTime 	19
scalar RSUExampleScenario.node[176].veinsmobility 	stopTime 	19.2
scalar RSUExampleScenario.node[176].veinsmobility 	minSpeed 	0.25269031599094
scalar RSUExampleScenario.node[176].veinsmobility 	maxSpeed 	13.889653999778
scalar RSUExampleScenario.node[176].veinsmobility 	totalDistance 	216.3170289163
scalar RSUExampleScenario.node[176].veinsmobility 	totalCO2Emission 	61.271119914583
statistic RSUExampleScenario.node[241].appl 	numberOfNodes:stats
field count 0
field mean -nan
field stddev -nan
field sum 0
field sqrsum 0
field min -nan
field max -nan
attr interpolationmode  none
attr source  numberOfNodes
attr title  "numberOfNodes, stats"
statistic RSUExampleScenario.node[241].appl 	distanceMsgRx:stats
field count 0
field mean -nan
field stddev -nan
field sum 0
field sqrsum 0
field min -nan
field max -nan
attr interpolationmode  none
attr source  distanceMsgRx
attr title  "distanceMsgRx, stats"
statistic RSUExampleScenario.node[241].appl 	beaconMsgCounterRx:stats
field count 227
field mean 114
field stddev 65.673434507417
field sum 25878
field sqrsum 3924830
field min 1
field max 227
attr interpolationmode  none
attr source  beaconMsgCounterRx
attr title  "beaconMsgCounterRx, stats"
statistic RSUExampleScenario.node[241].appl 	warningMsgCounterRx:stats
field count 1
field mean 1
field stddev -nan
field sum 1
field sqrsum 1
field min 1
field max 1
attr interpolationmode  none
attr source  warningMsgCounterRx
attr title  "warningMsgCounterRx, stats"
statistic RSUExampleScenario.node[241].appl 	hopCount:stats
field count 1
field mean 12
field stddev -nan
field sum 12
field sqrsum 144
field min 12
field max 12
attr interpolationmode  none
attr source  arrival1
attr title  "hop count, stats"
statistic RSUExampleScenario.node[241].appl 	delayFirstNewMessage:stats
field count 1
field mean 0.008913945742
field stddev -nan
field sum 0.008913945742
field sqrsum 7.945842869132e-05
field min 0.008913945742
field max 0.008913945742
attr interpolationmode  none
attr source  arrival
attr title  "delayFirstNewMessage, stats"
scalar RSUExampleScenario.node[241].nic.phy80211p 	busyTime 	0.0012258267716535
scalar RSUExampleScenario.node[241].nic.mac1609_4 	ReceivedUnicastPackets 	0
scalar RSUExampleScenario.node[241].nic.mac1609_4 	ReceivedBroadcasts 	228
scalar RSUExampleScenario.node[241].nic.mac1609_4 	SentPackets 	28
scalar RSUExampleScenario.node[241].nic.mac1609_4 	SNIRLostPackets 	0
scalar RSUExampleScenario.node[241].nic.mac1609_4 	RXTXLostPackets 	1
scalar RSUExampleScenario.node[241].nic.mac1609_4 	TotalLostPackets 	1
scalar RSUExampleScenario.node[241].nic.mac1609_4 	DroppedPacketsInMac 	0
scalar RSUExampleScenario.node[241].nic.mac1609_4 	TooLittleTime 	0
scalar RSUExampleScenario.node[241].nic.mac1609_4 	TimesIntoBackoff 	28
scalar RSUExampleScenario.node[241].nic.mac1609_4 	SlotsBackoff 	49
scalar RSUExampleScenario.node[241].nic.mac1609_4 	NumInternalContention 	0
scalar RSUExampleScenario.node[241].nic.mac1609_4 	totalBusyTime 	0.035100167263
scalar RSUExampleScenario.node[241].veinsmobility 	startTime 	0.1
scalar RSUExampleScenario.node[241].veinsmobility 	totalTime 	25.3
scalar RSUExampleScenario.node[241].veinsmobility 	stopTime 	25.5
scalar RSUExampleScenario.node[241].veinsmobility 	minSpeed 	0.24943337207357
scalar RSUExampleScenario.node[241].veinsmobility 	maxSpeed 	13.885735228811
scalar RSUExampleScenario.node[241].veinsmobility 	totalDistance 	206.79779850041
scalar RSUExampleScenario.node[241].veinsmobility 	totalCO2Emission 	97.00262431726
statistic RSUExampleScenario.node[332].appl 	numberOfNodes:stats
field count 0
field mean -nan
field stddev -nan
field sum 0
field sqrsum 0
field min -nan
field max -nan
attr interpolationmode  none
attr source  numberOfNodes
attr title  "numberOfNodes, stats"
statistic RSUExampleScenario.node[332].appl 	distanceMsgRx:stats
field count 0
field mean -nan
field stddev -nan
field sum 0
field sqrsum 0
field min -nan
field max -nan
attr interpolationmode  none
attr source  distanceMsgRx
attr title  "distanceMsgRx, stats"
statistic RSUExampleScenario.node[332].appl 	beaconMsgCounterRx:stats
field count 382
field mean 191.5
field stddev 110.4181446442
field sum 73153
field sqrsum 18654015
field min 1
field max 382
attr interpolationmode  none
attr source  beaconMsgCounterRx
attr title  "beaconMsgCounterRx, stats"
statistic RSUExampleScenario.node[332].appl 	warningMsgCounterRx:stats
field count 1
field mean 1
field stddev -nan
field sum 1
field sqrsum 1
field min 1
field max 1
attr interpolationmode  none
attr source  warningMsgCounterRx
attr title  "warningMsgCounterRx, stats"
statistic RSUExampleScenario.node[332].appl 	hopCount:stats
field count 1
field mean 15
field stddev -nan
field sum 15
field sqrsum 225
field min 15
field max 15
attr interpolationmode  none
attr source  arrival1
attr title  "hop count, stats"
statistic RSUExampleScenario.node[332].appl 	delayFirstNewMessage:stats
field count 1
field mean 0.008561394948
field stddev -nan
field sum 0.008561394948
field sqrsum 7.329748345564e-05
field min 0.008561394948
field max 0.008561394948
attr interpolationmode  none
attr source  arrival
attr title  "delayFirstNewMessage, stats"
scalar RSUExampleScenario.node[332].nic.phy80211p 	busyTime 	0.0023688495575221
scalar RSUExampleScenario.node[332].nic.mac1609_4 	ReceivedUnicastPackets 	0
scalar RSUExampleScenario.node[332].nic.mac1609_4 	ReceivedBroadcasts 	383
scalar RSUExampleScenario.node[332].nic.mac1609_4 	SentPackets 	36
scalar RSUExampleScenario.node[332].nic.mac1609_4 	SNIRLostPackets 	5
scalar RSUExampleScenario.node[332].nic.mac1609_4 	RXTXLostPackets 	3
scalar RSUExampleScenario.node[332].nic.mac1609_4 	TotalLostPackets 	8
scalar RSUExampleScenario.node[332].nic.mac1609_4 	DroppedPacketsInMac 	0
scalar RSUExampleScenario.node[332].nic.mac1609_4 	TooLittleTime 	0
scalar RSUExampleScenario.node[332].nic.mac1609_4 	TimesIntoBackoff 	36
scalar RSUExampleScenario.node[332].nic.mac1609_4 	SlotsBackoff 	57
scalar RSUExampleScenario.node[332].nic.mac1609_4 	NumInternalContention 	0
scalar RSUExampleScenario.node[332].nic.mac1609_4 	totalBusyTime 	0.057540067288
scalar RSUExampleScenario.node[332].veinsmobility 	startTime 	5.3
scalar RSUExampleScenario.node[332].veinsmobility 	totalTime 	22.5
scalar RSUExampleScenario.node[332].veinsmobility 	stopTime 	27.9
scalar RSUExampleScenario.node[332].veinsmobility 	minSpeed 	0.25757339070202
scalar RSUExampleScenario.node[332].veinsmobility 	maxSpeed 	22.219344479407
scalar RSUExampleScenario.node[332].veinsmobility 	totalDistance 	371.16773519556
scalar RSUExampleScenario.node[332].veinsmobility 	totalCO2Emission 	133.61581506119
statistic RSUExampleScenario.node[0].appl 	numberOfNodes:stats
field count 0
field mean -nan
field stddev -nan
field sum 0
field sqrsum 0
field min -nan
field max -nan
attr interpolationmode  none
attr source  numberOfNodes
attr title  "numberOfNodes, stats"
statistic RSUExampleScenario.node[0].appl 	distanceMsgRx:stats
field count 0
field mean -nan
field stddev -nan
field sum 0
field sqrsum 0
field min -nan
field max -nan
attr interpolationmode  none
attr source  distanceMsgRx
attr title  "distanceMsgRx, stats"
statistic RSUExampleScenario.node[0].appl 	beaconMsgCounterRx:stats
field count 394
field mean 197.5
field stddev 113.88224912894
field sum 77815
field sqrsum 20465345
field min 1
field max 394
attr interpolationmode  none
attr source  beaconMsgCounterRx
attr title  "beaconMsgCounterRx, stats"
statistic RSUExampleScenario.node[0].appl 	warningMsgCounterRx:stats
field count 2
field mean 1.5
field stddev 0.70710678118655
field sum 3
field sqrsum 5
field min 1
field max 2
attr interpolationmode  none
attr source  warningMsgCounterRx
attr title  "warningMsgCounterRx, stats"
statistic RSUExampleScenario.node[0].appl 	hopCount:stats
field count 2
field mean 10.5
field stddev 0.70710678118655
field sum 21
field sqrsum 221
field min 10
field max 11
attr interpolationmode  none
attr source  arrival1
attr title  "hop count, stats"
statistic RSUExampleScenario.node[0].appl 	delayFirstNewMessage:stats
field count 1
field mean 0.010338447333
field stddev -nan
field sum 0.010338447333
field sqrsum 0.00010688349325721
field min 0.010338447333
field max 0.010338447333
attr interpolationmode  none
attr source  arrival
attr title  "delayFirstNewMessage, stats"
scalar RSUExampleScenario.node[0].nic.phy80211p 	busyTime 	0.0018099916021004
scalar RSUExampleScenario.node[0].nic.mac1609_4 	ReceivedUnicastPackets 	0
scalar RSUExampleScenario.node[0].nic.mac1609_4 	ReceivedBroadcasts 	396
scalar RSUExampleScenario.node[0].nic.mac1609_4 	SentPackets 	49
scalar RSUExampleScenario.node[0].nic.mac1609_4 	SNIRLostPackets 	0
scalar RSUExampleScenario.node[0].nic.mac1609_4 	RXTXLostPackets 	0
scalar RSUExampleScenario.node[0].nic.mac1609_4 	TotalLostPackets 	0
scalar RSUExampleScenario.node[0].nic.mac1609_4 	DroppedPacketsInMac 	0
scalar RSUExampleScenario.node[0].nic.mac1609_4 	TooLittleTime 	0
scalar RSUExampleScenario.node[0].nic.mac1609_4 	TimesIntoBackoff 	49
scalar RSUExampleScenario.node[0].nic.mac1609_4 	SlotsBackoff 	89
scalar RSUExampleScenario.node[0].nic.mac1609_4 	NumInternalContention 	0
scalar RSUExampleScenario.node[0].nic.mac1609_4 	totalBusyTime 	0.060953
scalar RSUExampleScenario.node[0].veinsmobility 	startTime 	0.1
scalar RSUExampleScenario.node[0].veinsmobility 	totalTime 	29.8
scalar RSUExampleScenario.node[0].veinsmobility 	stopTime 	29.996271307117
scalar RSUExampleScenario.node[0].veinsmobility 	minSpeed 	0.25386460947827
scalar RSUExampleScenario.node[0].veinsmobility 	maxSpeed 	22.219059758836
scalar RSUExampleScenario.node[0].veinsmobility 	totalDistance 	375.60490775245
scalar RSUExampleScenario.node[0].veinsmobility 	totalCO2Emission 	138.91640582514
statistic RSUExampleScenario.node[1].appl 	numberOfNodes:stats
field count 0
field mean -nan
field stddev -nan
field sum 0
field sqrsum 0
field min -nan
field max -nan
attr interpolationmode  none
attr source  numberOfNodes
attr title  "numberOfNodes, stats"
statistic RSUExampleScenario.node[1].appl 	distanceMsgRx:stats
field count 0
field mean -nan
field stddev -nan
field sum 0
field sqrsum 0
field min -nan
field max -nan
attr interpolationmode  none
attr source  distanceMsgRx
attr title  "distanceMsgRx, stats"
statistic RSUExampleScenario.node[1].appl 	beaconMsgCounterRx:stats
field count 267
field mean 134
field stddev 77.220463609072
field sum 35778
field sqrsum 6380410
field min 1
field max 267
attr interpolationmode  none
attr source  beaconMsgCounterRx
attr title  "beaconMsgCounterRx, stats"
statistic RSUExampleScenario.node[1].appl 	warningMsgCounterRx:stats
field count 3
field mean 2
field stddev 1
field sum 6
field sqrsum 14
field min 1
field max 3
attr interpolationmode  none
attr source  warningMsgCounterRx
attr title  "warningMsgCounterRx, stats"
statistic RSUExampleScenario.node[1].appl 	hopCount:stats
field count 3
field mean 4.6666666666667
field stddev 0.57735026918963
field sum 14
field sqrsum 66
field min 4
field max 5
attr interpolationmode  none
attr source  arrival1
attr title  "hop count, stats"
statistic RSUExampleScenario.node[1].appl 	delayFirstNewMessage:stats
field count 1
field mean 0.004701323601
field stddev -nan
field sum 0.004701323601
field sqrsum 2.210244360132e-05
field min 0.004701323601
field max 0.004701323601
attr interpolationmode  none
attr source  arrival
attr title  "delayFirstNewMessage, stats"
scalar RSUExampleScenario.node[1].nic.phy80211p 	busyTime 	0.0012410912256863
scalar RSUExampleScenario.node[1].nic.mac1609_4 	ReceivedUnicastPackets 	0
scalar RSUExampleScenario.node[1].nic.mac1609_4 	ReceivedBroadcasts 	270
scalar RSUExampleScenario.node[1].nic.mac1609_4 	SentPackets 	41
scalar RSUExampleScenario.node[1].nic.mac1609_4 	SNIRLostPackets 	0
scalar RSUExampleScenario.node[1].nic.mac1609_4 	RXTXLostPackets 	4
scalar RSUExampleScenario.node[1].nic.mac1609_4 	TotalLostPackets 	4
scalar RSUExampleScenario.node[1].nic.mac1609_4 	DroppedPacketsInMac 	0
scalar RSUExampleScenario.node[1].nic.mac1609_4 	TooLittleTime 	0
scalar RSUExampleScenario.node[1].nic.mac1609_4 	TimesIntoBackoff 	41
scalar RSUExampleScenario.node[1].nic.mac1609_4 	SlotsBackoff 	66
scalar RSUExampleScenario.node[1].nic.mac1609_4 	NumInternalContention 	0
scalar RSUExampleScenario.node[1].nic.mac1609_4 	totalBusyTime 	0.04284900129
scalar RSUExampleScenario.node[1].veinsmobility 	startTime 	0.1
scalar RSUExampleScenario.node[1].veinsmobility 	totalTime 	29.8
scalar RSUExampleScenario.node[1].veinsmobility 	stopTime 	29.996271307117
scalar RSUExampleScenario.node[1].veinsmobility 	minSpeed 	0.2581837323918
scalar RSUExampleScenario.node[1].veinsmobility 	maxSpeed 	5.56
scalar RSUExampleScenario.node[1].veinsmobility 	totalDistance 	152.95891652928
scalar RSUExampleScenario.node[1].veinsmobility 	totalCO2Emission 	48.404639675105
statistic RSUExampleScenario.node[2].appl 	numberOfNodes:stats
field count 0
field mean -nan
field stddev -nan
field sum 0
field sqrsum 0
field min -nan
field max -nan
attr interpolationmode  none
attr source  numberOfNodes
attr title  "numberOfNodes, stats"
statistic RSUExampleScenario.node[2].appl 	distanceMsgRx:stats
field count 0
field mean -nan
field stddev -nan
field sum 0
field sqrsum 0
field min -nan
field max -nan
attr interpolationmode  none
attr source  distanceMsgRx
attr title  "distanceMsgRx, stats"
statistic RSUExampleScenario.node[2].appl 	beaconMsgCounterRx:stats
field count 220
field mean 110.5
field stddev 63.65270352991
field sum 24310
field sqrsum 3573570
field min 1
field max 220
attr interpolationmode  none
attr source  beaconMsgCounterRx
attr title  "beaconMsgCounterRx, stats"
statistic RSUExampleScenario.node[2].appl 	warningMsgCounterRx:stats
field count 5
field mean 3
field stddev 1.5811388300842
field sum 15
field sqrsum 55
field min 1
field max 5
attr interpolationmode  none
attr source  warningMsgCounterRx
attr title  "warningMsgCounterRx, stats"
statistic RSUExampleScenario.node[2].appl 	hopCount:stats
field count 5
field mean 10.6
field stddev 1.1401754250991
field sum 53
field sqrsum 567
field min 9
field max 12
attr interpolationmode  none
attr source  arrival1
attr title  "hop count, stats"
statistic RSUExampleScenario.node[2].appl 	delayFirstNewMessage:stats
field count 1
field mean 0.008412608944
field stddev -nan
field sum 0.008412608944
field sqrsum 7.0771989244669e-05
field min 0.008412608944
field max 0.008412608944
attr interpolationmode  none
attr source  arrival
attr title  "delayFirstNewMessage, stats"
scalar RSUExampleScenario.node[2].nic.phy80211p 	busyTime 	0.001062607429323
scalar RSUExampleScenario.node[2].nic.mac1609_4 	ReceivedUnicastPackets 	0
scalar RSUExampleScenario.node[2].nic.mac1609_4 	ReceivedBroadcasts 	225
scalar RSUExampleScenario.node[2].nic.mac1609_4 	SentPackets 	41
scalar RSUExampleScenario.node[2].nic.mac1609_4 	SNIRLostPackets 	2
scalar RSUExampleScenario.node[2].nic.mac1609_4 	RXTXLostPackets 	0
scalar RSUExampleScenario.node[2].nic.mac1609_4 	TotalLostPackets 	2
scalar RSUExampleScenario.node[2].nic.mac1609_4 	DroppedPacketsInMac 	0
scalar RSUExampleScenario.node[2].nic.mac1609_4 	TooLittleTime 	0
scalar RSUExampleScenario.node[2].nic.mac1609_4 	TimesIntoBackoff 	41
scalar RSUExampleScenario.node[2].nic.mac1609_4 	SlotsBackoff 	69
scalar RSUExampleScenario.node[2].nic.mac1609_4 	NumInternalContention 	0
scalar RSUExampleScenario.node[2].nic.mac1609_4 	totalBusyTime 	0.036857
scalar RSUExampleScenario.node[2].veinsmobility 	startTime 	0.1
scalar RSUExampleScenario.node[2].veinsmobility 	totalTime 	29.8
scalar RSUExampleScenario.node[2].veinsmobility 	stopTime 	29.996271307117
scalar RSUExampleScenario.node[2].veinsmobility 	minSpeed 	0.25088013710245
scalar RSUExampleScenario.node[2].veinsmobility 	maxSpeed 	8.3291093886131
scalar RSUExampleScenario.node[2].veinsmobility 	totalDistance 	194.1841933147
scalar RSUExampleScenario.node[2].veinsmobility 	totalCO2Emission 	63.25584792552
statistic RSUExampleScenario.node[3].appl 	numberOfNodes:stats
field count 0
field mean -nan
field stddev -nan
field sum 0
field sqrsum 0
field min -nan
field max -nan
attr interpolationmode  none
attr source  numberOfNodes
attr title  "numberOfNodes, stats"
statistic RSUExampleScenario.node[3].appl 	distanceMsgRx:stats
field count 0
field mean -nan
field stddev -nan
field sum 0
field sqrsum 0
field min -nan
field max -nan
attr interpolationmode  none
attr source  distanceMsgRx
attr title  "distanceMsgRx, stats"
statistic RSUExampleScenario.node[3].appl 	beaconMsgCounterRx:stats
field count 276
field mean 138.5
field stddev 79.81854421123
field sum 38226
field sqrsum 7046326
field min 1
field max 276
attr interpolationmode  none
attr source  beaconMsgCounterRx
attr title  "beaconMsgCounterRx, stats"
statistic RSUExampleScenario.node[3].appl 	warningMsgCounterRx:stats
field count 3
field mean 2
field stddev 1
field sum 6
field sqrsum 14
field min 1
field max 3
attr interpolationmode  none
attr source  warningMsgCounterRx
attr title  "warningMsgCounterRx, stats"
statistic RSUExampleScenario.node[3].appl 	hopCount:stats
field count 3
field mean 2
field stddev 0
field sum 6
field sqrsum 12
field min 2
field max 2
attr interpolationmode  none
attr source  arrival1
attr title  "hop count, stats"
statistic RSUExampleScenario.node[3].appl 	delayFirstNewMessage:stats
field count 1
field mean 0.032666052579
field stddev -nan
field sum 0.032666052579
field sqrsum 0.001067070991094
field min 0.032666052579
field max 0.032666052579
attr interpolationmode  none
attr source  arrival
attr title  "delayFirstNewMessage, stats"
scalar RSUExampleScenario.node[3].nic.phy80211p 	busyTime 	0.0013085243841323
scalar RSUExampleScenario.node[3].nic.mac1609_4 	ReceivedUnicastPackets 	0
scalar RSUExampleScenario.node[3].nic.mac1609_4 	ReceivedBroadcasts 	279
scalar RSUExampleScenario.node[3].nic.mac1609_4 	SentPackets 	72
scalar RSUExampleScenario.node[3].nic.mac1609_4 	SNIRLostPackets 	3
scalar RSUExampleScenario.node[3].nic.mac1609_4 	RXTXLostPackets 	0
scalar RSUExampleScenario.node[3].nic.mac1609_4 	TotalLostPackets 	3
scalar RSUExampleScenario.node[3].nic.mac1609_4 	DroppedPacketsInMac 	0
scalar RSUExampleScenario.node[3].nic.mac1609_4 	TooLittleTime 	0
scalar RSUExampleScenario.node[3].nic.mac1609_4 	TimesIntoBackoff 	72
scalar RSUExampleScenario.node[3].nic.mac1609_4 	SlotsBackoff 	102
scalar RSUExampleScenario.node[3].nic.mac1609_4 	NumInternalContention 	0
scalar RSUExampleScenario.node[3].nic.mac1609_4 	totalBusyTime 	0.048456
scalar RSUExampleScenario.node[3].veinsmobility 	startTime 	0.1
scalar RSUExampleScenario.node[3].veinsmobility 	totalTime 	29.8
scalar RSUExampleScenario.node[3].veinsmobility 	stopTime 	29.996271307117
scalar RSUExampleScenario.node[3].veinsmobility 	minSpeed 	0.24930382853583
scalar RSUExampleScenario.node[3].veinsmobility 	maxSpeed 	13.883656341787
scalar RSUExampleScenario.node[3].veinsmobility 	totalDistance 	236.42516310383
scalar RSUExampleScenario.node[3].veinsmobility 	totalCO2Emission 	99.688745719534
statistic RSUExampleScenario.node[4].appl 	numberOfNodes:stats
field count 0
field mean -nan
field stddev -nan
field sum 0
field sqrsum 0
field min -nan
field max -nan
attr interpolationmode  none
attr source  numberOfNodes
attr title  "numberOfNodes, stats"
statistic RSUExampleScenario.node[4].appl 	distanceMsgRx:stats
field count 0
field mean -nan
field stddev -nan
field sum 0
field sqrsum 0
field min -nan
field max -nan
attr interpolationmode  none
attr source  distanceMsgRx
attr title  "distanceMsgRx, stats"
statistic RSUExampleScenario.node[4].appl 	beaconMsgCounterRx:stats
field count 382
field mean 191.5
field stddev 110.4181446442
field sum 73153
field sqrsum 18654015
field min 1
field max 382
attr interpolationmode  none
attr source  beaconMsgCounterRx
attr title  "beaconMsgCounterRx, stats"
statistic RSUExampleScenario.node[4].appl 	warningMsgCounterRx:stats
field count 3
field mean 2
field stddev 1
field sum 6
field sqrsum 14
field min 1
field max 3
attr interpolationmode  none
attr source  warningMsgCounterRx
attr title  "warningMsgCounterRx, stats"
statistic RSUExampleScenario.node[4].appl 	hopCount:stats
field count 3
field mean 10.333333333333
field stddev 1.1547005383793
field sum 31
field sqrsum 323
field min 9
field max 11
attr interpolationmode  none
attr source  arrival1
attr title  "hop count, stats"
statistic RSUExampleScenario.node[4].appl 	delayFirstNewMessage:stats
field count 1
field mean 0.008412493315
field stddev -nan
field sum 0.008412493315
field sqrsum 7.077004377492e-05
field min 0.008412493315
field max 0.008412493315
attr interpolationmode  none
attr source  arrival
attr title  "delayFirstNewMessage, stats"
scalar RSUExampleScenario.node[4].nic.phy80211p 	busyTime 	0.0017642333874406
scalar RSUExampleScenario.node[4].nic.mac1609_4 	ReceivedUnicastPackets 	0
scalar RSUExampleScenario.node[4].nic.mac1609_4 	ReceivedBroadcasts 	385
scalar RSUExampleScenario.node[4].nic.mac1609_4 	SentPackets 	42
scalar RSUExampleScenario.node[4].nic.mac1609_4 	SNIRLostPackets 	0
scalar RSUExampleScenario.node[4].nic.mac1609_4 	RXTXLostPackets 	3
scalar RSUExampleScenario.node[4].nic.mac1609_4 	TotalLostPackets 	3
scalar RSUExampleScenario.node[4].nic.mac1609_4 	DroppedPacketsInMac 	0
scalar RSUExampleScenario.node[4].nic.mac1609_4 	TooLittleTime 	0
scalar RSUExampleScenario.node[4].nic.mac1609_4 	TimesIntoBackoff 	42
scalar RSUExampleScenario.node[4].nic.mac1609_4 	SlotsBackoff 	53
scalar RSUExampleScenario.node[4].nic.mac1609_4 	NumInternalContention 	0
scalar RSUExampleScenario.node[4].nic.mac1609_4 	totalBusyTime 	0.058626
scalar RSUExampleScenario.node[4].veinsmobility 	startTime 	0.1
scalar RSUExampleScenario.node[4].veinsmobility 	totalTime 	29.8
scalar RSUExampleScenario.node[4].veinsmobility 	stopTime 	29.996271307117
scalar RSUExampleScenario.node[4].veinsmobility 	minSpeed 	0.25382871928019
scalar RSUExampleScenario.node[4].veinsmobility 	maxSpeed 	8.3296912702289
scalar RSUExampleScenario.node[4].veinsmobility 	totalDistance 	220.79296997224
scalar RSUExampleScenario.node[4].veinsmobility 	totalCO2Emission 	63.985419591578
statistic RSUExampleScenario.node[5].appl 	numberOfNodes:stats
field count 0
field mean -nan
field stddev -nan
field sum 0
field sqrsum 0
field min -nan
field max -nan
attr interpolationmode  none
attr source  numberOfNodes
attr title  "numberOfNodes, stats"
statistic RSUExampleScenario.node[5].appl 	distanceMsgRx:stats
field count 0
field mean -nan
field stddev -nan
field sum 0
field sqrsum 0
field min -nan
field max -nan
attr interpolationmode  none
attr source  distanceMsgRx
attr title  "distanceMsgRx, stats"
statistic RSUExampleScenario.node[5].appl 	beaconMsgCounterRx:stats
field count 161
field mean 81
field stddev 46.62081080376
field sum 13041
field sqrsum 1404081
field min 1
field max 161
attr interpolationmode  none
attr source  beaconMsgCounterRx
attr title  "beaconMsgCounterRx, stats"
statistic RSUExampleScenario.node[5].appl 	warningMsgCounterRx:stats
field count 4
field mean 2.5
field stddev 1.2909944487358
field sum 10
field sqrsum 30
field min 1
field max 4
attr interpolationmode  none
attr source  warningMsgCounterRx
attr title  "warningMsgCounterRx, stats"
statistic RSUExampleScenario.node[5].appl 	hopCount:stats
field count 4
field mean 18
field stddev 1.4142135623731
field sum 72
field sqrsum 1302
field min 17
field max 20
attr interpolationmode  none
attr source  arrival1
attr title  "hop count, stats"
statistic RSUExampleScenario.node[5].appl 	delayFirstNewMessage:stats
field count 1
field mean 2.940623695294
field stddev -nan
field sum 2.940623695294
field sqrsum 8.6472677173245
field min 2.940623695294
field max 2.940623695294
attr interpolationmode  none
attr source  arrival
attr title  "delayFirstNewMessage, stats"
scalar RSUExampleScenario.node[5].nic.phy80211p 	busyTime 	0.00077681928162295
scalar RSUExampleScenario.node[5].nic.mac1609_4 	ReceivedUnicastPackets 	0
scalar RSUExampleScenario.node[5].nic.mac1609_4 	ReceivedBroadcasts 	165
scalar RSUExampleScenario.node[5].nic.mac1609_4 	SentPackets 	35
scalar RSUExampleScenario.node[5].nic.mac1609_4 	SNIRLostPackets 	2
scalar RSUExampleScenario.node[5].nic.mac1609_4 	RXTXLostPackets 	0
scalar RSUExampleScenario.node[5].nic.mac1609_4 	TotalLostPackets 	2
scalar RSUExampleScenario.node[5].nic.mac1609_4 	DroppedPacketsInMac 	0
scalar RSUExampleScenario.node[5].nic.mac1609_4 	TooLittleTime 	0
scalar RSUExampleScenario.node[5].nic.mac1609_4 	TimesIntoBackoff 	35
scalar RSUExampleScenario.node[5].nic.mac1609_4 	SlotsBackoff 	61
scalar RSUExampleScenario.node[5].nic.mac1609_4 	NumInternalContention 	0
scalar RSUExampleScenario.node[5].nic.mac1609_4 	totalBusyTime 	0.028011
scalar RSUExampleScenario.node[5].veinsmobility 	startTime 	0.1
scalar RSUExampleScenario.node[5].veinsmobility 	totalTime 	29.8
scalar RSUExampleScenario.node[5].veinsmobility 	stopTime 	29.996271307117
scalar RSUExampleScenario.node[5].veinsmobility 	minSpeed 	0.25660365995904
scalar RSUExampleScenario.node[5].veinsmobility 	maxSpeed 	18.062909246507
scalar RSUExampleScenario.node[5].veinsmobility 	totalDistance 	304.87582130603
scalar RSUExampleScenario.node[5].veinsmobility 	totalCO2Emission 	108.93284969646
statistic RSUExampleScenario.node[6].appl 	numberOfNodes:stats
field count 0
field mean -nan
field stddev -nan
field sum 0
field sqrsum 0
field min -nan
field max -nan
attr interpolationmode  none
attr source  numberOfNodes
attr title  "numberOfNodes, stats"
statistic RSUExampleScenario.node[6].appl 	distanceMsgRx:stats
field count 0
field mean -nan
field stddev -nan
field sum 0
field sqrsum 0
field min -nan
field max -nan
attr interpolationmode  none
attr source  distanceMsgRx
attr title  "distanceMsgRx, stats"
statistic RSUExampleScenario.node[6].appl 	beaconMsgCounterRx:stats
field count 346
field mean 173.5
field stddev 100.02582999739
field sum 60031
field sqrsum 13867161
field min 1
field max 346
attr interpolationmode  none
attr source  beaconMsgCounterRx
attr title  "beaconMsgCounterRx, stats"
statistic RSUExampleScenario.node[6].appl 	warningMsgCounterRx:stats
field count 1
field mean 1
field stddev -nan
field sum 1
field sqrsum 1
field min 1
field max 1
attr interpolationmode  none
attr source  warningMsgCounterRx
attr title  "warningMsgCounterRx, stats"
statistic RSUExampleScenario.node[6].appl 	hopCount:stats
field count 1
field mean 9
field stddev -nan
field sum 9
field sqrsum 81
field min 9
field max 9
attr interpolationmode  none
attr source  arrival1
attr title  "hop count, stats"
statistic RSUExampleScenario.node[6].appl 	delayFirstNewMessage:stats
field count 1
field mean 0.007555963078
field stddev -nan
field sum 0.007555963078
field sqrsum 5.7092578036099e-05
field min 0.007555963078
field max 0.007555963078
attr interpolationmode  none
attr source  arrival
attr title  "delayFirstNewMessage, stats"
scalar RSUExampleScenario.node[6].nic.phy80211p 	busyTime 	0.0016004671455001
scalar RSUExampleScenario.node[6].nic.mac1609_4 	ReceivedUnicastPackets 	0
scalar RSUExampleScenario.node[6].nic.mac1609_4 	ReceivedBroadcasts 	347
scalar RSUExampleScenario.node[6].nic.mac1609_4 	SentPackets 	44
scalar RSUExampleScenario.node[6].nic.mac1609_4 	SNIRLostPackets 	2
scalar RSUExampleScenario.node[6].nic.mac1609_4 	RXTXLostPackets 	0
scalar RSUExampleScenario.node[6].nic.mac1609_4 	TotalLostPackets 	2
scalar RSUExampleScenario.node[6].nic.mac1609_4 	DroppedPacketsInMac 	0
scalar RSUExampleScenario.node[6].nic.mac1609_4 	TooLittleTime 	0
scalar RSUExampleScenario.node[6].nic.mac1609_4 	TimesIntoBackoff 	44
scalar RSUExampleScenario.node[6].nic.mac1609_4 	SlotsBackoff 	64
scalar RSUExampleScenario.node[6].nic.mac1609_4 	NumInternalContention 	0
scalar RSUExampleScenario.node[6].nic.mac1609_4 	totalBusyTime 	0.05374
scalar RSUExampleScenario.node[6].veinsmobility 	startTime 	0.1
scalar RSUExampleScenario.node[6].veinsmobility 	totalTime 	29.8
scalar RSUExampleScenario.node[6].veinsmobility 	stopTime 	29.996271307117
scalar RSUExampleScenario.node[6].veinsmobility 	minSpeed 	9.4729944861903e-05
scalar RSUExampleScenario.node[6].veinsmobility 	maxSpeed 	8.3299805336306
scalar RSUExampleScenario.node[6].veinsmobility 	totalDistance 	140.46448896969
scalar RSUExampleScenario.node[6].veinsmobility 	totalCO2Emission 	49.572903516568
statistic RSUExampleScenario.node[7].appl 	numberOfNodes:stats
field count 0
field mean -nan
field stddev -nan
field sum 0
field sqrsum 0
field min -nan
field max -nan
attr interpolationmode  none
attr source  numberOfNodes
attr title  "numberOfNodes, stats"
statistic RSUExampleScenario.node[7].appl 	distanceMsgRx:stats
field count 0
field mean -nan
field stddev -nan
field sum 0
field sqrsum 0
field min -nan
field max -nan
attr interpolationmode  none
attr source  distanceMsgRx
attr title  "distanceMsgRx, stats"
statistic RSUExampleScenario.node[7].appl 	beaconMsgCounterRx:stats
field count 268
field mean 134.5
field stddev 77.50913924607
field sum 36046
field sqrsum 6452234
field min 1
field max 268
attr interpolationmode  none
attr source  beaconMsgCounterRx
attr title  "beaconMsgCounterRx, stats"
statistic RSUExampleScenario.node[7].appl 	warningMsgCounterRx:stats
field count 2
field mean 1.5
field stddev 0.70710678118655
field sum 3
field sqrsum 5
field min 1
field max 2
attr interpolationmode  none
attr source  warningMsgCounterRx
attr title  "warningMsgCounterRx, stats"
statistic RSUExampleScenario.node[7].appl 	hopCount:stats
field count 2
field mean 12
field stddev 1.4142135623731
field sum 24
field sqrsum 290
field min 11
field max 13
attr interpolationmode  none
attr source  arrival1
attr title  "hop count, stats"
statistic RSUExampleScenario.node[7].appl 	delayFirstNewMessage:stats
field count 1
field mean 0.008175536916
field stddev -nan
field sum 0.008175536916
field sqrsum 6.6839403864879e-05
field min 0.008175536916
field max 0.008175536916
attr interpolationmode  none
attr source  arrival
attr title  "delayFirstNewMessage, stats"
scalar RSUExampleScenario.node[7].nic.phy80211p 	busyTime 	0.0012368097553087
scalar RSUExampleScenario.node[7].nic.mac1609_4 	ReceivedUnicastPackets 	0
scalar RSUExampleScenario.node[7].nic.mac1609_4 	ReceivedBroadcasts 	270
scalar RSUExampleScenario.node[7].nic.mac1609_4 	SentPackets 	27
scalar RSUExampleScenario.node[7].nic.mac1609_4 	SNIRLostPackets 	0
scalar RSUExampleScenario.node[7].nic.mac1609_4 	RXTXLostPackets 	1
scalar RSUExampleScenario.node[7].nic.mac1609_4 	TotalLostPackets 	1
scalar RSUExampleScenario.node[7].nic.mac1609_4 	DroppedPacketsInMac 	0
scalar RSUExampleScenario.node[7].nic.mac1609_4 	TooLittleTime 	0
scalar RSUExampleScenario.node[7].nic.mac1609_4 	TimesIntoBackoff 	27
scalar RSUExampleScenario.node[7].nic.mac1609_4 	SlotsBackoff 	51
scalar RSUExampleScenario.node[7].nic.mac1609_4 	NumInternalContention 	0
scalar RSUExampleScenario.node[7].nic.mac1609_4 	totalBusyTime 	0.040803
scalar RSUExampleScenario.node[7].veinsmobility 	startTime 	0.1
scalar RSUExampleScenario.node[7].veinsmobility 	totalTime 	29.8
scalar RSUExampleScenario.node[7].veinsmobility 	stopTime 	29.996271307117
scalar RSUExampleScenario.node[7].veinsmobility 	minSpeed 	0.0019668390906351
scalar RSUExampleScenario.node[7].veinsmobility 	maxSpeed 	15.673662856964
scalar RSUExampleScenario.node[7].veinsmobility 	totalDistance 	169.38435831623
scalar RSUExampleScenario.node[7].veinsmobility 	totalCO2Emission 	70.079241213409
statistic RSUExampleScenario.node[8].appl 	numberOfNodes:stats
field count 0
field mean -nan
field stddev -nan
field sum 0
field sqrsum 0
field min -nan
field max -nan
attr interpolationmode  none
attr source  numberOfNodes
attr title  "numberOfNodes, stats"
statistic RSUExampleScenario.node[8].appl 	distanceMsgRx:stats
field count 0
field mean -nan
field stddev -nan
field sum 0
field sqrsum 0
field min -nan
field max -nan
attr interpolationmode  none
attr source  distanceMsgRx
attr title  "distanceMsgRx, stats"
statistic RSUExampleScenario.node[8].appl 	beaconMsgCounterRx:stats
field count 244
field mean 122.5
field stddev 70.580922823853
field sum 29890
field sqrsum 4872070
field min 1
field max 244
attr interpolationmode  none
attr source  beaconMsgCounterRx
attr title  "beaconMsgCounterRx, stats"
statistic RSUExampleScenario.node[8].appl 	warningMsgCounterRx:stats
field count 3
field mean 2
field stddev 1
field sum 6
field sqrsum 14
field min 1
field max 3
attr interpolationmode  none
attr source  warningMsgCounterRx
attr title  "warningMsgCounterRx, stats"
statistic RSUExampleScenario.node[8].appl 	hopCount:stats
field count 3
field mean 6
field stddev 0
field sum 18
field sqrsum 108
field min 6
field max 6
attr interpolationmode  none
attr source  arrival1
attr title  "hop count, stats"
statistic RSUExampleScenario.node[8].appl 	delayFirstNewMessage:stats
field count 1
field mean 0.176923368769
field stddev -nan
field sum 0.176923368769
field sqrsum 0.031301878416572
field min 0.176923368769
field max 0.176923368769
attr interpolationmode  none
attr source  arrival
attr title  "delayFirstNewMessage, stats"
scalar RSUExampleScenario.node[8].nic.phy80211p 	busyTime 	0.0011364627933354
scalar RSUExampleScenario.node[8].nic.mac1609_4 	ReceivedUnicastPackets 	0
scalar RSUExampleScenario.node[8].nic.mac1609_4 	ReceivedBroadcasts 	247
scalar RSUExampleScenario.node[8].nic.mac1609_4 	SentPackets 	46
scalar RSUExampleScenario.node[8].nic.mac1609_4 	SNIRLostPackets 	0
scalar RSUExampleScenario.node[8].nic.mac1609_4 	RXTXLostPackets 	3
scalar RSUExampleScenario.node[8].nic.mac1609_4 	TotalLostPackets 	3
scalar RSUExampleScenario.node[8].nic.mac1609_4 	DroppedPacketsInMac 	0
scalar RSUExampleScenario.node[8].nic.mac1609_4 	TooLittleTime 	0
scalar RSUExampleScenario.node[8].nic.mac1609_4 	TimesIntoBackoff 	46
scalar RSUExampleScenario.node[8].nic.mac1609_4 	SlotsBackoff 	60
scalar RSUExampleScenario.node[8].nic.mac1609_4 	NumInternalContention 	0
scalar RSUExampleScenario.node[8].nic.mac1609_4 	totalBusyTime 	0.040406
scalar RSUExampleScenario.node[8].veinsmobility 	startTime 	0.1
scalar RSUExampleScenario.node[8].veinsmobility 	totalTime 	29.8
scalar RSUExampleScenario.node[8].veinsmobility 	stopTime 	29.996271307117
scalar RSUExampleScenario.node[8].veinsmobility 	minSpeed 	0.25504753446532
scalar RSUExampleScenario.node[8].veinsmobility 	maxSpeed 	14.307776155941
scalar RSUExampleScenario.node[8].veinsmobility 	totalDistance 	313.86268142267
scalar RSUExampleScenario.node[8].veinsmobility 	totalCO2Emission 	99.443825614362
statistic RSUExampleScenario.node[322].appl 	numberOfNodes:stats
field count 0
field mean -nan
field stddev -nan
field sum 0
field sqrsum 0
field min -nan
field max -nan
attr interpolationmode  none
attr source  numberOfNodes
attr title  "numberOfNodes, stats"
statistic RSUExampleScenario.node[322].appl 	distanceMsgRx:stats
field count 0
field mean -nan
field stddev -nan
field sum 0
field sqrsum 0
field min -nan
field max -nan
attr interpolationmode  none
attr source  distanceMsgRx
attr title  "distanceMsgRx, stats"
statistic RSUExampleScenario.node[322].appl 	beaconMsgCounterRx:stats
field count 84
field mean 42.5
field stddev 24.392621835301
field sum 3570
field sqrsum 201110
field min 1
field max 84
attr interpolationmode  none
attr source  beaconMsgCounterRx
attr title  "beaconMsgCounterRx, stats"
statistic RSUExampleScenario.node[322].appl 	warningMsgCounterRx:stats
field count 1
field mean 1
field stddev -nan
field sum 1
field sqrsum 1
field min 1
field max 1
attr interpolationmode  none
attr source  warningMsgCounterRx
attr title  "warningMsgCounterRx, stats"
statistic RSUExampleScenario.node[322].appl 	hopCount:stats
field count 1
field mean 6
field stddev -nan
field sum 6
field sqrsum 36
field min 6
field max 6
attr interpolationmode  none
attr source  arrival1
attr title  "hop count, stats"
statistic RSUExampleScenario.node[322].appl 	delayFirstNewMessage:stats
field count 1
field mean 1.030355970365
field stddev -nan
field sum 1.030355970365
field sqrsum 1.0616334256668
field min 1.030355970365
field max 1.030355970365
attr interpolationmode  none
attr source  arrival
attr title  "delayFirstNewMessage, stats"
scalar RSUExampleScenario.node[322].nic.phy80211p 	busyTime 	0.00047326982501329
scalar RSUExampleScenario.node[322].nic.mac1609_4 	ReceivedUnicastPackets 	0
scalar RSUExampleScenario.node[322].nic.mac1609_4 	ReceivedBroadcasts 	85
scalar RSUExampleScenario.node[322].nic.mac1609_4 	SentPackets 	27
scalar RSUExampleScenario.node[322].nic.mac1609_4 	SNIRLostPackets 	0
scalar RSUExampleScenario.node[322].nic.mac1609_4 	RXTXLostPackets 	0
scalar RSUExampleScenario.node[322].nic.mac1609_4 	TotalLostPackets 	0
scalar RSUExampleScenario.node[322].nic.mac1609_4 	DroppedPacketsInMac 	0
scalar RSUExampleScenario.node[322].nic.mac1609_4 	TooLittleTime 	0
scalar RSUExampleScenario.node[322].nic.mac1609_4 	TimesIntoBackoff 	27
scalar RSUExampleScenario.node[322].nic.mac1609_4 	SlotsBackoff 	46
scalar RSUExampleScenario.node[322].nic.mac1609_4 	NumInternalContention 	0
scalar RSUExampleScenario.node[322].nic.mac1609_4 	totalBusyTime 	0.015515
scalar RSUExampleScenario.node[322].veinsmobility 	startTime 	5.3
scalar RSUExampleScenario.node[322].veinsmobility 	totalTime 	24.6
scalar RSUExampleScenario.node[322].veinsmobility 	stopTime 	29.996271307117
scalar RSUExampleScenario.node[322].veinsmobility 	minSpeed 	0.25208881679596
scalar RSUExampleScenario.node[322].veinsmobility 	maxSpeed 	13.888900404137
scalar RSUExampleScenario.node[322].veinsmobility 	totalDistance 	293.55697959265
scalar RSUExampleScenario.node[322].veinsmobility 	totalCO2Emission 	75.310585630663
statistic RSUExampleScenario.node[9].appl 	numberOfNodes:stats
field count 0
field mean -nan
field stddev -nan
field sum 0
field sqrsum 0
field min -nan
field max -nan
attr interpolationmode  none
attr source  numberOfNodes
attr title  "numberOfNodes, stats"
statistic RSUExampleScenario.node[9].appl 	distanceMsgRx:stats
field count 0
field mean -nan
field stddev -nan
field sum 0
field sqrsum 0
field min -nan
field max -nan
attr interpolationmode  none
attr source  distanceMsgRx
attr title  "distanceMsgRx, stats"
statistic RSUExampleScenario.node[9].appl 	beaconMsgCounterRx:stats
field count 407
field mean 204
field stddev 117.6350287967
field sum 83028
field sqrsum 22555940
field min 1
field max 407
attr interpolationmode  none
attr source  beaconMsgCounterRx
attr title  "beaconMsgCounterRx, stats"
statistic RSUExampleScenario.node[9].appl 	warningMsgCounterRx:stats
field count 4
field mean 2.5
field stddev 1.2909944487358
field sum 10
field sqrsum 30
field min 1
field max 4
attr interpolationmode  none
attr source  warningMsgCounterRx
attr title  "warningMsgCounterRx, stats"
statistic RSUExampleScenario.node[9].appl 	hopCount:stats
field count 4
field mean 10.5
field stddev 0.57735026918963
field sum 42
field sqrsum 442
field min 10
field max 11
attr interpolationmode  none
attr source  arrival1
attr title  "hop count, stats"
statistic RSUExampleScenario.node[9].appl 	delayFirstNewMessage:stats
field count 1
field mean 0.00783931947
field stddev -nan
field sum 0.00783931947
field sqrsum 6.1454929752721e-05
field min 0.00783931947
field max 0.00783931947
attr interpolationmode  none
attr source  arrival
attr title  "delayFirstNewMessage, stats"
scalar RSUExampleScenario.node[9].nic.phy80211p 	busyTime 	0.001922112607612
scalar RSUExampleScenario.node[9].nic.mac1609_4 	ReceivedUnicastPackets 	0
scalar RSUExampleScenario.node[9].nic.mac1609_4 	ReceivedBroadcasts 	411
scalar RSUExampleScenario.node[9].nic.mac1609_4 	SentPackets 	43
scalar RSUExampleScenario.node[9].nic.mac1609_4 	SNIRLostPackets 	4
scalar RSUExampleScenario.node[9].nic.mac1609_4 	RXTXLostPackets 	0
scalar RSUExampleScenario.node[9].nic.mac1609_4 	TotalLostPackets 	4
scalar RSUExampleScenario.node[9].nic.mac1609_4 	DroppedPacketsInMac 	0
scalar RSUExampleScenario.node[9].nic.mac1609_4 	TooLittleTime 	0
scalar RSUExampleScenario.node[9].nic.mac1609_4 	TimesIntoBackoff 	43
scalar RSUExampleScenario.node[9].nic.mac1609_4 	SlotsBackoff 	58
scalar RSUExampleScenario.node[9].nic.mac1609_4 	NumInternalContention 	0
scalar RSUExampleScenario.node[9].nic.mac1609_4 	totalBusyTime 	0.062955
scalar RSUExampleScenario.node[9].veinsmobility 	startTime 	0.1
scalar RSUExampleScenario.node[9].veinsmobility 	totalTime 	29.8
scalar RSUExampleScenario.node[9].veinsmobility 	stopTime 	29.996271307117
scalar RSUExampleScenario.node[9].veinsmobility 	minSpeed 	0.25662942827097
scalar RSUExampleScenario.node[9].veinsmobility 	maxSpeed 	21.84367189186
scalar RSUExampleScenario.node[9].veinsmobility 	totalDistance 	337.97794517993
scalar RSUExampleScenario.node[9].veinsmobility 	totalCO2Emission 	108.02280483516
statistic RSUExampleScenario.node[253].appl 	numberOfNodes:stats
field count 0
field mean -nan
field stddev -nan
field sum 0
field sqrsum 0
field min -nan
field max -nan
attr interpolationmode  none
attr source  numberOfNodes
attr title  "numberOfNodes, stats"
statistic RSUExampleScenario.node[253].appl 	distanceMsgRx:stats
field count 0
field mean -nan
field stddev -nan
field sum 0
field sqrsum 0
field min -nan
field max -nan
attr interpolationmode  none
attr source  distanceMsgRx
attr title  "distanceMsgRx, stats"
statistic RSUExampleScenario.node[253].appl 	beaconMsgCounterRx:stats
field count 132
field mean 66.5
field stddev 38.249182997811
field sum 8778
field sqrsum 775390
field min 1
field max 132
attr interpolationmode  none
attr source  beaconMsgCounterRx
attr title  "beaconMsgCounterRx, stats"
statistic RSUExampleScenario.node[253].appl 	warningMsgCounterRx:stats
field count 2
field mean 1.5
field stddev 0.70710678118655
field sum 3
field sqrsum 5
field min 1
field max 2
attr interpolationmode  none
attr source  warningMsgCounterRx
attr title  "warningMsgCounterRx, stats"
statistic RSUExampleScenario.node[253].appl 	hopCount:stats
field count 2
field mean 13.5
field stddev 0.70710678118655
field sum 27
field sqrsum 365
field min 13
field max 14
attr interpolationmode  none
attr source  arrival1
attr title  "hop count, stats"
statistic RSUExampleScenario.node[253].appl 	delayFirstNewMessage:stats
field count 1
field mean 7.149448146958
field stddev -nan
field sum 7.149448146958
field sqrsum 51.114608806041
field min 7.149448146958
field max 7.149448146958
attr interpolationmode  none
attr source  arrival
attr title  "delayFirstNewMessage, stats"
scalar RSUExampleScenario.node[253].nic.phy80211p 	busyTime 	0.00067701554516646
scalar RSUExampleScenario.node[253].nic.mac1609_4 	ReceivedUnicastPackets 	0
scalar RSUExampleScenario.node[253].nic.mac1609_4 	ReceivedBroadcasts 	134
scalar RSUExampleScenario.node[253].nic.mac1609_4 	SentPackets 	21
scalar RSUExampleScenario.node[253].nic.mac1609_4 	SNIRLostPackets 	0
scalar RSUExampleScenario.node[253].nic.mac1609_4 	RXTXLostPackets 	3
scalar RSUExampleScenario.node[253].nic.mac1609_4 	TotalLostPackets 	3
scalar RSUExampleScenario.node[253].nic.mac1609_4 	DroppedPacketsInMac 	0
scalar RSUExampleScenario.node[253].nic.mac1609_4 	TooLittleTime 	0
scalar RSUExampleScenario.node[253].nic.mac1609_4 	TimesIntoBackoff 	21
scalar RSUExampleScenario.node[253].nic.mac1609_4 	SlotsBackoff 	40
scalar RSUExampleScenario.node[253].nic.mac1609_4 	NumInternalContention 	0
scalar RSUExampleScenario.node[253].nic.mac1609_4 	totalBusyTime 	0.021485125397
scalar RSUExampleScenario.node[253].veinsmobility 	startTime 	2.7
scalar RSUExampleScenario.node[253].veinsmobility 	totalTime 	27.2
scalar RSUExampleScenario.node[253].veinsmobility 	stopTime 	29.996271307117
scalar RSUExampleScenario.node[253].veinsmobility 	minSpeed 	0.0060955804359985
scalar RSUExampleScenario.node[253].veinsmobility 	maxSpeed 	13.889739002718
scalar RSUExampleScenario.node[253].veinsmobility 	totalDistance 	178.77445049179
scalar RSUExampleScenario.node[253].veinsmobility 	totalCO2Emission 	64.629218942163
statistic RSUExampleScenario.node[10].appl 	numberOfNodes:stats
field count 0
field mean -nan
field stddev -nan
field sum 0
field sqrsum 0
field min -nan
field max -nan
attr interpolationmode  none
attr source  numberOfNodes
attr title  "numberOfNodes, stats"
statistic RSUExampleScenario.node[10].appl 	distanceMsgRx:stats
field count 0
field mean -nan
field stddev -nan
field sum 0
field sqrsum 0
field min -nan
field max -nan
attr interpolationmode  none
attr source  distanceMsgRx
attr title  "distanceMsgRx, stats"
statistic RSUExampleScenario.node[10].appl 	beaconMsgCounterRx:stats
field count 167
field mean 84
field stddev 48.352869614946
field sum 14028
field sqrsum 1566460
field min 1
field max 167
attr interpolationmode  none
attr source  beaconMsgCounterRx
attr title  "beaconMsgCounterRx, stats"
statistic RSUExampleScenario.node[10].appl 	warningMsgCounterRx:stats
field count 3
field mean 2
field stddev 1
field sum 6
field sqrsum 14
field min 1
field max 3
attr interpolationmode  none
attr source  warningMsgCounterRx
attr title  "warningMsgCounterRx, stats"
statistic RSUExampleScenario.node[10].appl 	hopCount:stats
field count 3
field mean 6
field stddev 0
field sum 18
field sqrsum 108
field min 6
field max 6
attr interpolationmode  none
attr source  arrival1
attr title  "hop count, stats"
statistic RSUExampleScenario.node[10].appl 	delayFirstNewMessage:stats
field count 1
field mean 0.176923473553
field stddev -nan
field sum 0.176923473553
field sqrsum 0.031301915494059
field min 0.176923473553
field max 0.176923473553
attr interpolationmode  none
attr source  arrival
attr title  "delayFirstNewMessage, stats"
scalar RSUExampleScenario.node[10].nic.phy80211p 	busyTime 	0.00082150712868841
scalar RSUExampleScenario.node[10].nic.mac1609_4 	ReceivedUnicastPackets 	0
scalar RSUExampleScenario.node[10].nic.mac1609_4 	ReceivedBroadcasts 	170
scalar RSUExampleScenario.node[10].nic.mac1609_4 	SentPackets 	47
scalar RSUExampleScenario.node[10].nic.mac1609_4 	SNIRLostPackets 	4
scalar RSUExampleScenario.node[10].nic.mac1609_4 	RXTXLostPackets 	0
scalar RSUExampleScenario.node[10].nic.mac1609_4 	TotalLostPackets 	4
scalar RSUExampleScenario.node[10].nic.mac1609_4 	DroppedPacketsInMac 	0
scalar RSUExampleScenario.node[10].nic.mac1609_4 	TooLittleTime 	0
scalar RSUExampleScenario.node[10].nic.mac1609_4 	TimesIntoBackoff 	47
scalar RSUExampleScenario.node[10].nic.mac1609_4 	SlotsBackoff 	64
scalar RSUExampleScenario.node[10].nic.mac1609_4 	NumInternalContention 	0
scalar RSUExampleScenario.node[10].nic.mac1609_4 	totalBusyTime 	0.030207138759
scalar RSUExampleScenario.node[10].veinsmobility 	startTime 	0.1
scalar RSUExampleScenario.node[10].veinsmobility 	totalTime 	29.8
scalar RSUExampleScenario.node[10].veinsmobility 	stopTime 	29.996271307117
scalar RSUExampleScenario.node[10].veinsmobility 	minSpeed 	0.25542809836124
scalar RSUExampleScenario.node[10].veinsmobility 	maxSpeed 	12.147445019924
scalar RSUExampleScenario.node[10].veinsmobility 	totalDistance 	167.16022244133
scalar RSUExampleScenario.node[10].veinsmobility 	totalCO2Emission 	64.078717571297
statistic RSUExampleScenario.node[11].appl 	numberOfNodes:stats
field count 0
field mean -nan
field stddev -nan
field sum 0
field sqrsum 0
field min -nan
field max -nan
attr interpolationmode  none
attr source  numberOfNodes
attr title  "numberOfNodes, stats"
statistic RSUExampleScenario.node[11].appl 	distanceMsgRx:stats
field count 0
field mean -nan
field stddev -nan
field sum 0
field sqrsum 0
field min -nan
field max -nan
attr interpolationmode  none
attr source  distanceMsgRx
attr title  "distanceMsgRx, stats"
statistic RSUExampleScenario.node[11].appl 	beaconMsgCounterRx:stats
field count 150
field mean 75.5
field stddev 43.445367992457
field sum 11325
field sqrsum 1136275
field min 1
field max 150
attr interpolationmode  none
attr source  beaconMsgCounterRx
attr title  "beaconMsgCounterRx, stats"
statistic RSUExampleScenario.node[11].appl 	warningMsgCounterRx:stats
field count 5
field mean 3
field stddev 1.5811388300842
field sum 15
field sqrsum 55
field min 1
field max 5
attr interpolationmode  none
attr source  warningMsgCounterRx
attr title  "warningMsgCounterRx, stats"
statistic RSUExampleScenario.node[11].appl 	hopCount:stats
field count 5
field mean 9.4
field stddev 0.89442719099991
field sum 47
field sqrsum 445
field min 8
field max 10
attr interpolationmode  none
attr source  arrival1
attr title  "hop count, stats"
statistic RSUExampleScenario.node[11].appl 	delayFirstNewMessage:stats
field count 1
field mean 0.180222357663
field stddev -nan
field sum 0.180222357663
field sqrsum 0.03248009820161
field min 0.180222357663
field max 0.180222357663
attr interpolationmode  none
attr source  arrival
attr title  "delayFirstNewMessage, stats"
scalar RSUExampleScenario.node[11].nic.phy80211p 	busyTime 	0.00073561012923923
scalar RSUExampleScenario.node[11].nic.mac1609_4 	ReceivedUnicastPackets 	0
scalar RSUExampleScenario.node[11].nic.mac1609_4 	ReceivedBroadcasts 	155
scalar RSUExampleScenario.node[11].nic.mac1609_4 	SentPackets 	35
scalar RSUExampleScenario.node[11].nic.mac1609_4 	SNIRLostPackets 	2
scalar RSUExampleScenario.node[11].nic.mac1609_4 	RXTXLostPackets 	0
scalar RSUExampleScenario.node[11].nic.mac1609_4 	TotalLostPackets 	2
scalar RSUExampleScenario.node[11].nic.mac1609_4 	DroppedPacketsInMac 	0
scalar RSUExampleScenario.node[11].nic.mac1609_4 	TooLittleTime 	0
scalar RSUExampleScenario.node[11].nic.mac1609_4 	TimesIntoBackoff 	35
scalar RSUExampleScenario.node[11].nic.mac1609_4 	SlotsBackoff 	52
scalar RSUExampleScenario.node[11].nic.mac1609_4 	NumInternalContention 	0
scalar RSUExampleScenario.node[11].nic.mac1609_4 	totalBusyTime 	0.02676789173
scalar RSUExampleScenario.node[11].veinsmobility 	startTime 	0.1
scalar RSUExampleScenario.node[11].veinsmobility 	totalTime 	29.8
scalar RSUExampleScenario.node[11].veinsmobility 	stopTime 	29.996271307117
scalar RSUExampleScenario.node[11].veinsmobility 	minSpeed 	0.2525855165571
scalar RSUExampleScenario.node[11].veinsmobility 	maxSpeed 	5.5584912543977
scalar RSUExampleScenario.node[11].veinsmobility 	totalDistance 	157.17272204012
scalar RSUExampleScenario.node[11].veinsmobility 	totalCO2Emission 	48.217248787317
statistic RSUExampleScenario.node[12].appl 	numberOfNodes:stats
field count 0
field mean -nan
field stddev -nan
field sum 0
field sqrsum 0
field min -nan
field max -nan
attr interpolationmode  none
attr source  numberOfNodes
attr title  "numberOfNodes, stats"
statistic RSUExampleScenario.node[12].appl 	distanceMsgRx:stats
field count 0
field mean -nan
field stddev -nan
field sum 0
field sqrsum 0
field min -nan
field max -nan
attr interpolationmode  none
attr source  distanceMsgRx
attr title  "distanceMsgRx, stats"
statistic RSUExampleScenario.node[12].appl 	beaconMsgCounterRx:stats
field count 378
field mean 189.5
field stddev 109.26344310885
field sum 71631
field sqrsum 18074889
field min 1
field max 378
attr interpolationmode  none
attr source  beaconMsgCounterRx
attr title  "beaconMsgCounterRx, stats"
statistic RSUExampleScenario.node[12].appl 	warningMsgCounterRx:stats
field count 9
field mean 5
field stddev 2.7386127875258
field sum 45
field sqrsum 285
field min 1
field max 9
attr interpolationmode  none
attr source  warningMsgCounterRx
attr title  "warningMsgCounterRx, stats"
statistic RSUExampleScenario.node[12].appl 	hopCount:stats
field count 9
field mean 6.1111111111111
field stddev 2.368778400592
field sum 55
field sqrsum 381
field min 3
field max 8
attr interpolationmode  none
attr source  arrival1
attr title  "hop count, stats"
statistic RSUExampleScenario.node[12].appl 	delayFirstNewMessage:stats
field count 1
field mean 0.00586938255
field stddev -nan
field sum 0.00586938255
field sqrsum 3.4449651518245e-05
field min 0.00586938255
field max 0.00586938255
attr interpolationmode  none
attr source  arrival
attr title  "delayFirstNewMessage, stats"
scalar RSUExampleScenario.node[12].nic.phy80211p 	busyTime 	0.0018477220598024
scalar RSUExampleScenario.node[12].nic.mac1609_4 	ReceivedUnicastPackets 	0
scalar RSUExampleScenario.node[12].nic.mac1609_4 	ReceivedBroadcasts 	387
scalar RSUExampleScenario.node[12].nic.mac1609_4 	SentPackets 	26
scalar RSUExampleScenario.node[12].nic.mac1609_4 	SNIRLostPackets 	6
scalar RSUExampleScenario.node[12].nic.mac1609_4 	RXTXLostPackets 	0
scalar RSUExampleScenario.node[12].nic.mac1609_4 	TotalLostPackets 	6
scalar RSUExampleScenario.node[12].nic.mac1609_4 	DroppedPacketsInMac 	0
scalar RSUExampleScenario.node[12].nic.mac1609_4 	TooLittleTime 	0
scalar RSUExampleScenario.node[12].nic.mac1609_4 	TimesIntoBackoff 	26
scalar RSUExampleScenario.node[12].nic.mac1609_4 	SlotsBackoff 	49
scalar RSUExampleScenario.node[12].nic.mac1609_4 	NumInternalContention 	0
scalar RSUExampleScenario.node[12].nic.mac1609_4 	totalBusyTime 	0.058002
scalar RSUExampleScenario.node[12].veinsmobility 	startTime 	0.1
scalar RSUExampleScenario.node[12].veinsmobility 	totalTime 	29.8
scalar RSUExampleScenario.node[12].veinsmobility 	stopTime 	29.996271307117
scalar RSUExampleScenario.node[12].veinsmobility 	minSpeed 	1.6447552099978e-08
scalar RSUExampleScenario.node[12].veinsmobility 	maxSpeed 	13.81485108935
scalar RSUExampleScenario.node[12].veinsmobility 	totalDistance 	84.006059511847
scalar RSUExampleScenario.node[12].veinsmobility 	totalCO2Emission 	58.124976395812
statistic RSUExampleScenario.node[13].appl 	numberOfNodes:stats
field count 0
field mean -nan
field stddev -nan
field sum 0
field sqrsum 0
field min -nan
field max -nan
attr interpolationmode  none
attr source  numberOfNodes
attr title  "numberOfNodes, stats"
statistic RSUExampleScenario.node[13].appl 	distanceMsgRx:stats
field count 0
field mean -nan
field stddev -nan
field sum 0
field sqrsum 0
field min -nan
field max -nan
attr interpolationmode  none
attr source  distanceMsgRx
attr title  "distanceMsgRx, stats"
statistic RSUExampleScenario.node[13].appl 	beaconMsgCounterRx:stats
field count 537
field mean 269
field stddev 155.16281771095
field sum 144453
field sqrsum 51762325
field min 1
field max 537
attr interpolationmode  none
attr source  beaconMsgCounterRx
attr title  "beaconMsgCounterRx, stats"
statistic RSUExampleScenario.node[13].appl 	warningMsgCounterRx:stats
field count 8
field mean 4.5
field stddev 2.4494897427832
field sum 36
field sqrsum 204
field min 1
field max 8
attr interpolationmode  none
attr source  warningMsgCounterRx
attr title  "warningMsgCounterRx, stats"
statistic RSUExampleScenario.node[13].appl 	hopCount:stats
field count 8
field mean 16.625
field stddev 0.9161253813129
field sum 133
field sqrsum 2217
field min 15
field max 18
attr interpolationmode  none
attr source  arrival1
attr title  "hop count, stats"
statistic RSUExampleScenario.node[13].appl 	delayFirstNewMessage:stats
field count 1
field mean 0.008561780807
field stddev -nan
field sum 0.008561780807
field sqrsum 7.3304090587114e-05
field min 0.008561780807
field max 0.008561780807
attr interpolationmode  none
attr source  arrival
attr title  "delayFirstNewMessage, stats"
scalar RSUExampleScenario.node[13].nic.phy80211p 	busyTime 	0.0025311517688155
scalar RSUExampleScenario.node[13].nic.mac1609_4 	ReceivedUnicastPackets 	0
scalar RSUExampleScenario.node[13].nic.mac1609_4 	ReceivedBroadcasts 	545
scalar RSUExampleScenario.node[13].nic.mac1609_4 	SentPackets 	55
scalar RSUExampleScenario.node[13].nic.mac1609_4 	SNIRLostPackets 	2
scalar RSUExampleScenario.node[13].nic.mac1609_4 	RXTXLostPackets 	2
scalar RSUExampleScenario.node[13].nic.mac1609_4 	TotalLostPackets 	4
scalar RSUExampleScenario.node[13].nic.mac1609_4 	DroppedPacketsInMac 	0
scalar RSUExampleScenario.node[13].nic.mac1609_4 	TooLittleTime 	0
scalar RSUExampleScenario.node[13].nic.mac1609_4 	TimesIntoBackoff 	55
scalar RSUExampleScenario.node[13].nic.mac1609_4 	SlotsBackoff 	90
scalar RSUExampleScenario.node[13].nic.mac1609_4 	NumInternalContention 	0
scalar RSUExampleScenario.node[13].nic.mac1609_4 	totalBusyTime 	0.083199
scalar RSUExampleScenario.node[13].veinsmobility 	startTime 	0.1
scalar RSUExampleScenario.node[13].veinsmobility 	totalTime 	29.8
scalar RSUExampleScenario.node[13].veinsmobility 	stopTime 	29.996271307117
scalar RSUExampleScenario.node[13].veinsmobility 	minSpeed 	0.24779034617264
scalar RSUExampleScenario.node[13].veinsmobility 	maxSpeed 	13.886120094215
scalar RSUExampleScenario.node[13].veinsmobility 	totalDistance 	266.7147565087
scalar RSUExampleScenario.node[13].veinsmobility 	totalCO2Emission 	102.03995498077
statistic RSUExampleScenario.node[254].appl 	numberOfNodes:stats
field count 0
field mean -nan
field stddev -nan
field sum 0
field sqrsum 0
field min -nan
field max -nan
attr interpolationmode  none
attr source  numberOfNodes
attr title  "numberOfNodes, stats"
statistic RSUExampleScenario.node[254].appl 	distanceMsgRx:stats
field count 0
field mean -nan
field stddev -nan
field sum 0
field sqrsum 0
field min -nan
field max -nan
attr interpolationmode  none
attr source  distanceMsgRx
attr title  "distanceMsgRx, stats"
statistic RSUExampleScenario.node[254].appl 	beaconMsgCounterRx:stats
field count 197
field mean 99
field stddev 57.013156376401
field sum 19503
field sqrsum 2567895
field min 1
field max 197
attr interpolationmode  none
attr source  beaconMsgCounterRx
attr title  "beaconMsgCounterRx, stats"
statistic RSUExampleScenario.node[254].appl 	warningMsgCounterRx:stats
field count 2
field mean 1.5
field stddev 0.70710678118655
field sum 3
field sqrsum 5
field min 1
field max 2
attr interpolationmode  none
attr source  warningMsgCounterRx
attr title  "warningMsgCounterRx, stats"
statistic RSUExampleScenario.node[254].appl 	hopCount:stats
field count 2
field mean 9.5
field stddev 0.70710678118655
field sum 19
field sqrsum 181
field min 9
field max 10
attr interpolationmode  none
attr source  arrival1
attr title  "hop count, stats"
statistic RSUExampleScenario.node[254].appl 	delayFirstNewMessage:stats
field count 1
field mean 0.007555182638
field stddev -nan
field sum 0.007555182638
field sqrsum 5.7080784693537e-05
field min 0.007555182638
field max 0.007555182638
attr interpolationmode  none
attr source  arrival
attr title  "delayFirstNewMessage, stats"
scalar RSUExampleScenario.node[254].nic.phy80211p 	busyTime 	0.0010395559042015
scalar RSUExampleScenario.node[254].nic.mac1609_4 	ReceivedUnicastPackets 	0
scalar RSUExampleScenario.node[254].nic.mac1609_4 	ReceivedBroadcasts 	199
scalar RSUExampleScenario.node[254].nic.mac1609_4 	SentPackets 	33
scalar RSUExampleScenario.node[254].nic.mac1609_4 	SNIRLostPackets 	4
scalar RSUExampleScenario.node[254].nic.mac1609_4 	RXTXLostPackets 	0
scalar RSUExampleScenario.node[254].nic.mac1609_4 	TotalLostPackets 	4
scalar RSUExampleScenario.node[254].nic.mac1609_4 	DroppedPacketsInMac 	0
scalar RSUExampleScenario.node[254].nic.mac1609_4 	TooLittleTime 	0
scalar RSUExampleScenario.node[254].nic.mac1609_4 	TimesIntoBackoff 	33
scalar RSUExampleScenario.node[254].nic.mac1609_4 	SlotsBackoff 	49
scalar RSUExampleScenario.node[254].nic.mac1609_4 	NumInternalContention 	0
scalar RSUExampleScenario.node[254].nic.mac1609_4 	totalBusyTime 	0.032105
scalar RSUExampleScenario.node[254].veinsmobility 	startTime 	2.7
scalar RSUExampleScenario.node[254].veinsmobility 	totalTime 	27.2
scalar RSUExampleScenario.node[254].veinsmobility 	stopTime 	29.996271307117
scalar RSUExampleScenario.node[254].veinsmobility 	minSpeed 	0.24761194024794
scalar RSUExampleScenario.node[254].veinsmobility 	maxSpeed 	13.8888359896
scalar RSUExampleScenario.node[254].veinsmobility 	totalDistance 	314.88968186055
scalar RSUExampleScenario.node[254].veinsmobility 	totalCO2Emission 	76.389430080842
statistic RSUExampleScenario.node[323].appl 	numberOfNodes:stats
field count 0
field mean -nan
field stddev -nan
field sum 0
field sqrsum 0
field min -nan
field max -nan
attr interpolationmode  none
attr source  numberOfNodes
attr title  "numberOfNodes, stats"
statistic RSUExampleScenario.node[323].appl 	distanceMsgRx:stats
field count 0
field mean -nan
field stddev -nan
field sum 0
field sqrsum 0
field min -nan
field max -nan
attr interpolationmode  none
attr source  distanceMsgRx
attr title  "distanceMsgRx, stats"
statistic RSUExampleScenario.node[323].appl 	beaconMsgCounterRx:stats
field count 110
field mean 55.5
field stddev 31.898275815473
field sum 6105
field sqrsum 449735
field min 1
field max 110
attr interpolationmode  none
attr source  beaconMsgCounterRx
attr title  "beaconMsgCounterRx, stats"
statistic RSUExampleScenario.node[323].appl 	warningMsgCounterRx:stats
field count 1
field mean 1
field stddev -nan
field sum 1
field sqrsum 1
field min 1
field max 1
attr interpolationmode  none
attr source  warningMsgCounterRx
attr title  "warningMsgCounterRx, stats"
statistic RSUExampleScenario.node[323].appl 	hopCount:stats
field count 1
field mean 13
field stddev -nan
field sum 13
field sqrsum 169
field min 13
field max 13
attr interpolationmode  none
attr source  arrival1
attr title  "hop count, stats"
statistic RSUExampleScenario.node[323].appl 	delayFirstNewMessage:stats
field count 1
field mean 7.149448058915
field stddev -nan
field sum 7.149448058915
field sqrsum 51.114607547123
field min 7.149448058915
field max 7.149448058915
attr interpolationmode  none
attr source  arrival
attr title  "delayFirstNewMessage, stats"
scalar RSUExampleScenario.node[323].nic.phy80211p 	busyTime 	0.00065920882539497
scalar RSUExampleScenario.node[323].nic.mac1609_4 	ReceivedUnicastPackets 	0
scalar RSUExampleScenario.node[323].nic.mac1609_4 	ReceivedBroadcasts 	111
scalar RSUExampleScenario.node[323].nic.mac1609_4 	SentPackets 	18
scalar RSUExampleScenario.node[323].nic.mac1609_4 	SNIRLostPackets 	4
scalar RSUExampleScenario.node[323].nic.mac1609_4 	RXTXLostPackets 	0
scalar RSUExampleScenario.node[323].nic.mac1609_4 	TotalLostPackets 	4
scalar RSUExampleScenario.node[323].nic.mac1609_4 	DroppedPacketsInMac 	0
scalar RSUExampleScenario.node[323].nic.mac1609_4 	TooLittleTime 	0
scalar RSUExampleScenario.node[323].nic.mac1609_4 	TimesIntoBackoff 	18
scalar RSUExampleScenario.node[323].nic.mac1609_4 	SlotsBackoff 	25
scalar RSUExampleScenario.node[323].nic.mac1609_4 	NumInternalContention 	0
scalar RSUExampleScenario.node[323].nic.mac1609_4 	totalBusyTime 	0.018082176084
scalar RSUExampleScenario.node[323].veinsmobility 	startTime 	5.3
scalar RSUExampleScenario.node[323].veinsmobility 	totalTime 	24.6
scalar RSUExampleScenario.node[323].veinsmobility 	stopTime 	29.996271307117
scalar RSUExampleScenario.node[323].veinsmobility 	minSpeed 	0.056143252700492
scalar RSUExampleScenario.node[323].veinsmobility 	maxSpeed 	13.887641194572
scalar RSUExampleScenario.node[323].veinsmobility 	totalDistance 	169.23386059562
scalar RSUExampleScenario.node[323].veinsmobility 	totalCO2Emission 	58.716111672774
statistic RSUExampleScenario.node[14].appl 	numberOfNodes:stats
field count 0
field mean -nan
field stddev -nan
field sum 0
field sqrsum 0
field min -nan
field max -nan
attr interpolationmode  none
attr source  numberOfNodes
attr title  "numberOfNodes, stats"
statistic RSUExampleScenario.node[14].appl 	distanceMsgRx:stats
field count 0
field mean -nan
field stddev -nan
field sum 0
field sqrsum 0
field min -nan
field max -nan
attr interpolationmode  none
attr source  distanceMsgRx
attr title  "distanceMsgRx, stats"
statistic RSUExampleScenario.node[14].appl 	beaconMsgCounterRx:stats
field count 505
field mean 253
field stddev 145.9252091541
field sum 127765
field sqrsum 43056805
field min 1
field max 505
attr interpolationmode  none
attr source  beaconMsgCounterRx
attr title  "beaconMsgCounterRx, stats"
statistic RSUExampleScenario.node[14].appl 	warningMsgCounterRx:stats
field count 6
field mean 3.5
field stddev 1.870828693387
field sum 21
field sqrsum 91
field min 1
field max 6
attr interpolationmode  none
attr source  warningMsgCounterRx
attr title  "warningMsgCounterRx, stats"
statistic RSUExampleScenario.node[14].appl 	hopCount:stats
field count 6
field mean 5.5
field stddev 0.83666002653408
field sum 33
field sqrsum 185
field min 4
field max 6
attr interpolationmode  none
attr source  arrival1
attr title  "hop count, stats"
statistic RSUExampleScenario.node[14].appl 	delayFirstNewMessage:stats
field count 1
field mean 0.005194823675
field stddev -nan
field sum 0.005194823675
field sqrsum 2.6986193014341e-05
field min 0.005194823675
field max 0.005194823675
attr interpolationmode  none
attr source  arrival
attr title  "delayFirstNewMessage, stats"
scalar RSUExampleScenario.node[14].nic.phy80211p 	busyTime 	0.0024297344392478
scalar RSUExampleScenario.node[14].nic.mac1609_4 	ReceivedUnicastPackets 	0
scalar RSUExampleScenario.node[14].nic.mac1609_4 	ReceivedBroadcasts 	511
scalar RSUExampleScenario.node[14].nic.mac1609_4 	SentPackets 	38
scalar RSUExampleScenario.node[14].nic.mac1609_4 	SNIRLostPackets 	9
scalar RSUExampleScenario.node[14].nic.mac1609_4 	RXTXLostPackets 	0
scalar RSUExampleScenario.node[14].nic.mac1609_4 	TotalLostPackets 	9
scalar RSUExampleScenario.node[14].nic.mac1609_4 	DroppedPacketsInMac 	0
scalar RSUExampleScenario.node[14].nic.mac1609_4 	TooLittleTime 	0
scalar RSUExampleScenario.node[14].nic.mac1609_4 	TimesIntoBackoff 	39
scalar RSUExampleScenario.node[14].nic.mac1609_4 	SlotsBackoff 	68
scalar RSUExampleScenario.node[14].nic.mac1609_4 	NumInternalContention 	0
scalar RSUExampleScenario.node[14].nic.mac1609_4 	totalBusyTime 	0.07639
scalar RSUExampleScenario.node[14].veinsmobility 	startTime 	0.1
scalar RSUExampleScenario.node[14].veinsmobility 	totalTime 	29.8
scalar RSUExampleScenario.node[14].veinsmobility 	stopTime 	29.996271307117
scalar RSUExampleScenario.node[14].veinsmobility 	minSpeed 	0.25561422073608
scalar RSUExampleScenario.node[14].veinsmobility 	maxSpeed 	22.215810433158
scalar RSUExampleScenario.node[14].veinsmobility 	totalDistance 	312.66203189029
scalar RSUExampleScenario.node[14].veinsmobility 	totalCO2Emission 	149.499594414
statistic RSUExampleScenario.node[15].appl 	numberOfNodes:stats
field count 0
field mean -nan
field stddev -nan
field sum 0
field sqrsum 0
field min -nan
field max -nan
attr interpolationmode  none
attr source  numberOfNodes
attr title  "numberOfNodes, stats"
statistic RSUExampleScenario.node[15].appl 	distanceMsgRx:stats
field count 0
field mean -nan
field stddev -nan
field sum 0
field sqrsum 0
field min -nan
field max -nan
attr interpolationmode  none
attr source  distanceMsgRx
attr title  "distanceMsgRx, stats"
statistic RSUExampleScenario.node[15].appl 	beaconMsgCounterRx:stats
field count 298
field mean 149.5
field stddev 86.169406790732
field sum 44551
field sqrsum 8865649
field min 1
field max 298
attr interpolationmode  none
attr source  beaconMsgCounterRx
attr title  "beaconMsgCounterRx, stats"
statistic RSUExampleScenario.node[15].appl 	warningMsgCounterRx:stats
field count 2
field mean 1.5
field stddev 0.70710678118655
field sum 3
field sqrsum 5
field min 1
field max 2
attr interpolationmode  none
attr source  warningMsgCounterRx
attr title  "warningMsgCounterRx, stats"
statistic RSUExampleScenario.node[15].appl 	hopCount:stats
field count 2
field mean 8.5
field stddev 0.70710678118655
field sum 17
field sqrsum 145
field min 8
field max 9
attr interpolationmode  none
attr source  arrival1
attr title  "hop count, stats"
statistic RSUExampleScenario.node[15].appl 	delayFirstNewMessage:stats
field count 1
field mean 0.006205222651
field stddev -nan
field sum 0.006205222651
field sqrsum 3.8504788148483e-05
field min 0.006205222651
field max 0.006205222651
attr interpolationmode  none
attr source  arrival
attr title  "delayFirstNewMessage, stats"
scalar RSUExampleScenario.node[15].nic.phy80211p 	busyTime 	0.0014088713461057
scalar RSUExampleScenario.node[15].nic.mac1609_4 	ReceivedUnicastPackets 	0
scalar RSUExampleScenario.node[15].nic.mac1609_4 	ReceivedBroadcasts 	300
scalar RSUExampleScenario.node[15].nic.mac1609_4 	SentPackets 	59
scalar RSUExampleScenario.node[15].nic.mac1609_4 	SNIRLostPackets 	5
scalar RSUExampleScenario.node[15].nic.mac1609_4 	RXTXLostPackets 	0
scalar RSUExampleScenario.node[15].nic.mac1609_4 	TotalLostPackets 	5
scalar RSUExampleScenario.node[15].nic.mac1609_4 	DroppedPacketsInMac 	0
scalar RSUExampleScenario.node[15].nic.mac1609_4 	TooLittleTime 	0
scalar RSUExampleScenario.node[15].nic.mac1609_4 	TimesIntoBackoff 	59
scalar RSUExampleScenario.node[15].nic.mac1609_4 	SlotsBackoff 	81
scalar RSUExampleScenario.node[15].nic.mac1609_4 	NumInternalContention 	0
scalar RSUExampleScenario.node[15].nic.mac1609_4 	totalBusyTime 	0.049539
scalar RSUExampleScenario.node[15].veinsmobility 	startTime 	0.1
scalar RSUExampleScenario.node[15].veinsmobility 	totalTime 	29.8
scalar RSUExampleScenario.node[15].veinsmobility 	stopTime 	29.996271307117
scalar RSUExampleScenario.node[15].veinsmobility 	minSpeed 	0.25387839642377
scalar RSUExampleScenario.node[15].veinsmobility 	maxSpeed 	22.219033309552
scalar RSUExampleScenario.node[15].veinsmobility 	totalDistance 	359.49703109948
scalar RSUExampleScenario.node[15].veinsmobility 	totalCO2Emission 	125.33879879429
statistic RSUExampleScenario.node[255].appl 	numberOfNodes:stats
field count 0
field mean -nan
field stddev -nan
field sum 0
field sqrsum 0
field min -nan
field max -nan
attr interpolationmode  none
attr source  numberOfNodes
attr title  "numberOfNodes, stats"
statistic RSUExampleScenario.node[255].appl 	distanceMsgRx:stats
field count 0
field mean -nan
field stddev -nan
field sum 0
field sqrsum 0
field min -nan
field max -nan
attr interpolationmode  none
attr source  distanceMsgRx
attr title  "distanceMsgRx, stats"
statistic RSUExampleScenario.node[255].appl 	beaconMsgCounterRx:stats
field count 642
field mean 321.5
field stddev 185.47371781468
field sum 206403
field sqrsum 88409285
field min 1
field max 642
attr interpolationmode  none
attr source  beaconMsgCounterRx
attr title  "beaconMsgCounterRx, stats"
statistic RSUExampleScenario.node[255].appl 	warningMsgCounterRx:stats
field count 17
field mean 9
field stddev 5.049752469181
field sum 153
field sqrsum 1785
field min 1
field max 17
attr interpolationmode  none
attr source  warningMsgCounterRx
attr title  "warningMsgCounterRx, stats"
statistic RSUExampleScenario.node[255].appl 	hopCount:stats
field count 17
field mean 6.2352941176471
field stddev 2.1074098961968
field sum 106
field sqrsum 732
field min 2
field max 8
attr interpolationmode  none
attr source  arrival1
attr title  "hop count, stats"
statistic RSUExampleScenario.node[255].appl 	delayFirstNewMessage:stats
field count 1
field mean 0.00418491483
field stddev -nan
field sum 0.00418491483
field sqrsum 1.7513512134354e-05
field min 0.00418491483
field max 0.00418491483
attr interpolationmode  none
attr source  arrival
attr title  "delayFirstNewMessage, stats"
scalar RSUExampleScenario.node[255].nic.phy80211p 	busyTime 	0.003407058750026
scalar RSUExampleScenario.node[255].nic.mac1609_4 	ReceivedUnicastPackets 	0
scalar RSUExampleScenario.node[255].nic.mac1609_4 	ReceivedBroadcasts 	659
scalar RSUExampleScenario.node[255].nic.mac1609_4 	SentPackets 	14
scalar RSUExampleScenario.node[255].nic.mac1609_4 	SNIRLostPackets 	6
scalar RSUExampleScenario.node[255].nic.mac1609_4 	RXTXLostPackets 	7
scalar RSUExampleScenario.node[255].nic.mac1609_4 	TotalLostPackets 	13
scalar RSUExampleScenario.node[255].nic.mac1609_4 	DroppedPacketsInMac 	0
scalar RSUExampleScenario.node[255].nic.mac1609_4 	TooLittleTime 	0
scalar RSUExampleScenario.node[255].nic.mac1609_4 	TimesIntoBackoff 	15
scalar RSUExampleScenario.node[255].nic.mac1609_4 	SlotsBackoff 	13
scalar RSUExampleScenario.node[255].nic.mac1609_4 	NumInternalContention 	0
scalar RSUExampleScenario.node[255].nic.mac1609_4 	totalBusyTime 	0.09463805217
scalar RSUExampleScenario.node[255].veinsmobility 	startTime 	2.7
scalar RSUExampleScenario.node[255].veinsmobility 	totalTime 	27.2
scalar RSUExampleScenario.node[255].veinsmobility 	stopTime 	29.996271307117
scalar RSUExampleScenario.node[255].veinsmobility 	minSpeed 	3.7093299545077e-09
scalar RSUExampleScenario.node[255].veinsmobility 	maxSpeed 	6.3629263293237
scalar RSUExampleScenario.node[255].veinsmobility 	totalDistance 	24.01929482442
scalar RSUExampleScenario.node[255].veinsmobility 	totalCO2Emission 	34.740202694801
statistic RSUExampleScenario.node[16].appl 	numberOfNodes:stats
field count 0
field mean -nan
field stddev -nan
field sum 0
field sqrsum 0
field min -nan
field max -nan
attr interpolationmode  none
attr source  numberOfNodes
attr title  "numberOfNodes, stats"
statistic RSUExampleScenario.node[16].appl 	distanceMsgRx:stats
field count 0
field mean -nan
field stddev -nan
field sum 0
field sqrsum 0
field min -nan
field max -nan
attr interpolationmode  none
attr source  distanceMsgRx
attr title  "distanceMsgRx, stats"
statistic RSUExampleScenario.node[16].appl 	beaconMsgCounterRx:stats
field count 376
field mean 188.5
field stddev 108.68609233323
field sum 70876
field sqrsum 17789876
field min 1
field max 376
attr interpolationmode  none
attr source  beaconMsgCounterRx
attr title  "beaconMsgCounterRx, stats"
statistic RSUExampleScenario.node[16].appl 	warningMsgCounterRx:stats
field count 6
field mean 3.5
field stddev 1.870828693387
field sum 21
field sqrsum 91
field min 1
field max 6
attr interpolationmode  none
attr source  warningMsgCounterRx
attr title  "warningMsgCounterRx, stats"
statistic RSUExampleScenario.node[16].appl 	hopCount:stats
field count 6
field mean 6.1666666666667
field stddev 1.7224014243685
field sum 37
field sqrsum 243
field min 3
field max 8
attr interpolationmode  none
attr source  arrival1
attr title  "hop count, stats"
statistic RSUExampleScenario.node[16].appl 	delayFirstNewMessage:stats
field count 1
field mean 0.004521969816
field stddev -nan
field sum 0.004521969816
[...]
statistic RSUExampleScenario.node[249].appl 	distanceMsgRx:stats
field count 0
field mean -nan
field stddev -nan
field sum 0
field sqrsum 0
field min -nan
field max -nan
attr interpolationmode  none
attr source  distanceMsgRx
attr title  "distanceMsgRx, stats"
statistic RSUExampleScenario.node[249].appl 	beaconMsgCounterRx:stats
field count 251
field mean 126
field stddev 72.601652873747
field sum 31626
field sqrsum 5302626
field min 1
field max 251
attr interpolationmode  none
attr source  beaconMsgCounterRx
attr title  "beaconMsgCounterRx, stats"
statistic RSUExampleScenario.node[249].appl 	warningMsgCounterRx:stats
field count 1
field mean 1
field stddev -nan
field sum 1
field sqrsum 1
field min 1
field max 1
attr interpolationmode  none
attr source  warningMsgCounterRx
attr title  "warningMsgCounterRx, stats"
statistic RSUExampleScenario.node[249].appl 	hopCount:stats
field count 1
field mean 13
field stddev -nan
field sum 13
field sqrsum 169
field min 13
field max 13
attr interpolationmode  none
attr source  arrival1
attr title  "hop count, stats"
statistic RSUExampleScenario.node[249].appl 	delayFirstNewMessage:stats
field count 1
field mean 0.00788847586
field stddev -nan
field sum 0.00788847586
field sqrsum 6.2228051393803e-05
field min 0.00788847586
field max 0.00788847586
attr interpolationmode  none
attr source  arrival
attr title  "delayFirstNewMessage, stats"
scalar RSUExampleScenario.node[249].nic.phy80211p 	busyTime 	0.0011859672945756
scalar RSUExampleScenario.node[249].nic.mac1609_4 	ReceivedUnicastPackets 	0
scalar RSUExampleScenario.node[249].nic.mac1609_4 	ReceivedBroadcasts 	252
scalar RSUExampleScenario.node[249].nic.mac1609_4 	SentPackets 	53
scalar RSUExampleScenario.node[249].nic.mac1609_4 	SNIRLostPackets 	4
scalar RSUExampleScenario.node[249].nic.mac1609_4 	RXTXLostPackets 	0
scalar RSUExampleScenario.node[249].nic.mac1609_4 	TotalLostPackets 	4
scalar RSUExampleScenario.node[249].nic.mac1609_4 	DroppedPacketsInMac 	0
scalar RSUExampleScenario.node[249].nic.mac1609_4 	TooLittleTime 	0
scalar RSUExampleScenario.node[249].nic.mac1609_4 	TimesIntoBackoff 	53
scalar RSUExampleScenario.node[249].nic.mac1609_4 	SlotsBackoff 	81
scalar RSUExampleScenario.node[249].nic.mac1609_4 	NumInternalContention 	0
scalar RSUExampleScenario.node[249].nic.mac1609_4 	totalBusyTime 	0.042053
scalar RSUExampleScenario.node[249].veinsmobility 	startTime 	0.1
scalar RSUExampleScenario.node[249].veinsmobility 	totalTime 	29.8
scalar RSUExampleScenario.node[249].veinsmobility 	stopTime 	29.996271307117
scalar RSUExampleScenario.node[249].veinsmobility 	minSpeed 	0.25391462113755
scalar RSUExampleScenario.node[249].veinsmobility 	maxSpeed 	20.440821792637
scalar RSUExampleScenario.node[249].veinsmobility 	totalDistance 	334.00034973999
scalar RSUExampleScenario.node[249].veinsmobility 	totalCO2Emission 	145.55558027388
statistic RSUExampleScenario.node[302].appl 	numberOfNodes:stats
field count 0
field mean -nan
field stddev -nan
field sum 0
field sqrsum 0
field min -nan
field max -nan
attr interpolationmode  none
attr source  numberOfNodes
attr title  "numberOfNodes, stats"
statistic RSUExampleScenario.node[302].appl 	distanceMsgRx:stats
field count 0
field mean -nan
field stddev -nan
field sum 0
field sqrsum 0
field min -nan
field max -nan
attr interpolationmode  none
attr source  distanceMsgRx
attr title  "distanceMsgRx, stats"
statistic RSUExampleScenario.node[302].appl 	beaconMsgCounterRx:stats
field count 368
field mean 184.5
field stddev 106.37668917578
field sum 67896
field sqrsum 16679784
field min 1
field max 368
attr interpolationmode  none
attr source  beaconMsgCounterRx
attr title  "beaconMsgCounterRx, stats"
statistic RSUExampleScenario.node[302].appl 	warningMsgCounterRx:stats
field count 8
field mean 4.5
field stddev 2.4494897427832
field sum 36
field sqrsum 204
field min 1
field max 8
attr interpolationmode  none
attr source  warningMsgCounterRx
attr title  "warningMsgCounterRx, stats"
statistic RSUExampleScenario.node[302].appl 	hopCount:stats
field count 8
field mean 4.625
field stddev 2.5599944196368
field sum 37
field sqrsum 217
field min 2
field max 8
attr interpolationmode  none
attr source  arrival1
attr title  "hop count, stats"
statistic RSUExampleScenario.node[302].appl 	delayFirstNewMessage:stats
field count 1
field mean 0.004184848293
field stddev -nan
field sum 0.004184848293
field sqrsum 1.7512955235425e-05
field min 0.004184848293
field max 0.004184848293
attr interpolationmode  none
attr source  arrival
attr title  "delayFirstNewMessage, stats"
scalar RSUExampleScenario.node[302].nic.phy80211p 	busyTime 	0.0019205553538856
scalar RSUExampleScenario.node[302].nic.mac1609_4 	ReceivedUnicastPackets 	0
scalar RSUExampleScenario.node[302].nic.mac1609_4 	ReceivedBroadcasts 	376
scalar RSUExampleScenario.node[302].nic.mac1609_4 	SentPackets 	11
scalar RSUExampleScenario.node[302].nic.mac1609_4 	SNIRLostPackets 	1
scalar RSUExampleScenario.node[302].nic.mac1609_4 	RXTXLostPackets 	8
scalar RSUExampleScenario.node[302].nic.mac1609_4 	TotalLostPackets 	9
scalar RSUExampleScenario.node[302].nic.mac1609_4 	DroppedPacketsInMac 	0
scalar RSUExampleScenario.node[302].nic.mac1609_4 	TooLittleTime 	0
scalar RSUExampleScenario.node[302].nic.mac1609_4 	TimesIntoBackoff 	11
scalar RSUExampleScenario.node[302].nic.mac1609_4 	SlotsBackoff 	22
scalar RSUExampleScenario.node[302].nic.mac1609_4 	NumInternalContention 	0
scalar RSUExampleScenario.node[302].nic.mac1609_4 	totalBusyTime 	0.053795345233
scalar RSUExampleScenario.node[302].veinsmobility 	startTime 	2.7
scalar RSUExampleScenario.node[302].veinsmobility 	totalTime 	27.2
scalar RSUExampleScenario.node[302].veinsmobility 	stopTime 	29.996271307117
scalar RSUExampleScenario.node[302].veinsmobility 	minSpeed 	4.0546372239316e-10
scalar RSUExampleScenario.node[302].veinsmobility 	maxSpeed 	3.2344143358003
scalar RSUExampleScenario.node[302].veinsmobility 	totalDistance 	9.2745717974605
scalar RSUExampleScenario.node[302].veinsmobility 	totalCO2Emission 	30.85532656562
statistic RSUExampleScenario.node[250].appl 	numberOfNodes:stats
field count 0
field mean -nan
field stddev -nan
field sum 0
field sqrsum 0
field min -nan
field max -nan
attr interpolationmode  none
attr source  numberOfNodes
attr title  "numberOfNodes, stats"
statistic RSUExampleScenario.node[250].appl 	distanceMsgRx:stats
field count 0
field mean -nan
field stddev -nan
field sum 0
field sqrsum 0
field min -nan
field max -nan
attr interpolationmode  none
attr source  distanceMsgRx
attr title  "distanceMsgRx, stats"
statistic RSUExampleScenario.node[250].appl 	beaconMsgCounterRx:stats
field count 79
field mean 40
field stddev 22.949219304078
field sum 3160
field sqrsum 167480
field min 1
field max 79
attr interpolationmode  none
attr source  beaconMsgCounterRx
attr title  "beaconMsgCounterRx, stats"
statistic RSUExampleScenario.node[250].appl 	warningMsgCounterRx:stats
field count 4
field mean 2.5
field stddev 1.2909944487358
field sum 10
field sqrsum 30
field min 1
field max 4
attr interpolationmode  none
attr source  warningMsgCounterRx
attr title  "warningMsgCounterRx, stats"
statistic RSUExampleScenario.node[250].appl 	hopCount:stats
field count 4
field mean 7.5
field stddev 2.6457513110646
field sum 30
field sqrsum 246
field min 5
field max 11
attr interpolationmode  none
attr source  arrival1
attr title  "hop count, stats"
statistic RSUExampleScenario.node[250].appl 	delayFirstNewMessage:stats
field count 1
field mean 5.645275190366
field stddev -nan
field sum 5.645275190366
field sqrsum 31.869131974962
field min 5.645275190366
field max 5.645275190366
attr interpolationmode  none
attr source  arrival
attr title  "delayFirstNewMessage, stats"
scalar RSUExampleScenario.node[250].nic.phy80211p 	busyTime 	0.00039469805042847
scalar RSUExampleScenario.node[250].nic.mac1609_4 	ReceivedUnicastPackets 	0
scalar RSUExampleScenario.node[250].nic.mac1609_4 	ReceivedBroadcasts 	83
scalar RSUExampleScenario.node[250].nic.mac1609_4 	SentPackets 	40
scalar RSUExampleScenario.node[250].nic.mac1609_4 	SNIRLostPackets 	0
scalar RSUExampleScenario.node[250].nic.mac1609_4 	RXTXLostPackets 	0
scalar RSUExampleScenario.node[250].nic.mac1609_4 	TotalLostPackets 	0
scalar RSUExampleScenario.node[250].nic.mac1609_4 	DroppedPacketsInMac 	0
scalar RSUExampleScenario.node[250].nic.mac1609_4 	TooLittleTime 	0
scalar RSUExampleScenario.node[250].nic.mac1609_4 	TimesIntoBackoff 	40
scalar RSUExampleScenario.node[250].nic.mac1609_4 	SlotsBackoff 	51
scalar RSUExampleScenario.node[250].nic.mac1609_4 	NumInternalContention 	0
scalar RSUExampleScenario.node[250].nic.mac1609_4 	totalBusyTime 	0.017408
scalar RSUExampleScenario.node[250].veinsmobility 	startTime 	0.1
scalar RSUExampleScenario.node[250].veinsmobility 	totalTime 	29.8
scalar RSUExampleScenario.node[250].veinsmobility 	stopTime 	29.996271307117
scalar RSUExampleScenario.node[250].veinsmobility 	minSpeed 	0.24740897135506
scalar RSUExampleScenario.node[250].veinsmobility 	maxSpeed 	13.878405774939
scalar RSUExampleScenario.node[250].veinsmobility 	totalDistance 	234.8746436185
scalar RSUExampleScenario.node[250].veinsmobility 	totalCO2Emission 	66.570999707696
statistic RSUExampleScenario.node[251].appl 	numberOfNodes:stats
field count 0
field mean -nan
field stddev -nan
field sum 0
field sqrsum 0
field min -nan
field max -nan
attr interpolationmode  none
attr source  numberOfNodes
attr title  "numberOfNodes, stats"
statistic RSUExampleScenario.node[251].appl 	distanceMsgRx:stats
field count 0
field mean -nan
field stddev -nan
field sum 0
field sqrsum 0
field min -nan
field max -nan
attr interpolationmode  none
attr source  distanceMsgRx
attr title  "distanceMsgRx, stats"
statistic RSUExampleScenario.node[251].appl 	beaconMsgCounterRx:stats
field count 237
field mean 119
field stddev 68.560192531818
field sum 28203
field sqrsum 4465475
field min 1
field max 237
attr interpolationmode  none
attr source  beaconMsgCounterRx
attr title  "beaconMsgCounterRx, stats"
statistic RSUExampleScenario.node[251].appl 	warningMsgCounterRx:stats
field count 3
field mean 2
field stddev 1
field sum 6
field sqrsum 14
field min 1
field max 3
attr interpolationmode  none
attr source  warningMsgCounterRx
attr title  "warningMsgCounterRx, stats"
statistic RSUExampleScenario.node[251].appl 	hopCount:stats
field count 3
field mean 6
field stddev 4.5825756949558
field sum 18
field sqrsum 150
field min 2
field max 11
attr interpolationmode  none
attr source  arrival1
attr title  "hop count, stats"
statistic RSUExampleScenario.node[251].appl 	delayFirstNewMessage:stats
field count 1
field mean 0.006846635414
field stddev -nan
field sum 0.006846635414
field sqrsum 4.6876416492239e-05
field min 0.006846635414
field max 0.006846635414
attr interpolationmode  none
attr source  arrival
attr title  "delayFirstNewMessage, stats"
scalar RSUExampleScenario.node[251].nic.phy80211p 	busyTime 	0.0011046193574025
scalar RSUExampleScenario.node[251].nic.mac1609_4 	ReceivedUnicastPackets 	0
scalar RSUExampleScenario.node[251].nic.mac1609_4 	ReceivedBroadcasts 	240
scalar RSUExampleScenario.node[251].nic.mac1609_4 	SentPackets 	44
scalar RSUExampleScenario.node[251].nic.mac1609_4 	SNIRLostPackets 	0
scalar RSUExampleScenario.node[251].nic.mac1609_4 	RXTXLostPackets 	2
scalar RSUExampleScenario.node[251].nic.mac1609_4 	TotalLostPackets 	2
scalar RSUExampleScenario.node[251].nic.mac1609_4 	DroppedPacketsInMac 	0
scalar RSUExampleScenario.node[251].nic.mac1609_4 	TooLittleTime 	0
scalar RSUExampleScenario.node[251].nic.mac1609_4 	TimesIntoBackoff 	44
scalar RSUExampleScenario.node[251].nic.mac1609_4 	SlotsBackoff 	72
scalar RSUExampleScenario.node[251].nic.mac1609_4 	NumInternalContention 	0
scalar RSUExampleScenario.node[251].nic.mac1609_4 	totalBusyTime 	0.039180016789
scalar RSUExampleScenario.node[251].veinsmobility 	startTime 	0.1
scalar RSUExampleScenario.node[251].veinsmobility 	totalTime 	29.8
scalar RSUExampleScenario.node[251].veinsmobility 	stopTime 	29.996271307117
scalar RSUExampleScenario.node[251].veinsmobility 	minSpeed 	0.25497981459182
scalar RSUExampleScenario.node[251].veinsmobility 	maxSpeed 	13.859236546988
scalar RSUExampleScenario.node[251].veinsmobility 	totalDistance 	200.18576636321
scalar RSUExampleScenario.node[251].veinsmobility 	totalCO2Emission 	85.829680327498
statistic RSUExampleScenario.node[303].appl 	numberOfNodes:stats
field count 0
field mean -nan
field stddev -nan
field sum 0
field sqrsum 0
field min -nan
field max -nan
attr interpolationmode  none
attr source  numberOfNodes
attr title  "numberOfNodes, stats"
statistic RSUExampleScenario.node[303].appl 	distanceMsgRx:stats
field count 0
field mean -nan
field stddev -nan
field sum 0
field sqrsum 0
field min -nan
field max -nan
attr interpolationmode  none
attr source  distanceMsgRx
attr title  "distanceMsgRx, stats"
statistic RSUExampleScenario.node[303].appl 	beaconMsgCounterRx:stats
field count 34
field mean 17.5
field stddev 9.9582461641931
field sum 595
field sqrsum 13685
field min 1
field max 34
attr interpolationmode  none
attr source  beaconMsgCounterRx
attr title  "beaconMsgCounterRx, stats"
statistic RSUExampleScenario.node[303].appl 	warningMsgCounterRx:stats
field count 1
field mean 1
field stddev -nan
field sum 1
field sqrsum 1
field min 1
field max 1
attr interpolationmode  none
attr source  warningMsgCounterRx
attr title  "warningMsgCounterRx, stats"
statistic RSUExampleScenario.node[303].appl 	hopCount:stats
field count 1
field mean 5
field stddev -nan
field sum 5
field sqrsum 25
field min 5
field max 5
attr interpolationmode  none
attr source  arrival1
attr title  "hop count, stats"
statistic RSUExampleScenario.node[303].appl 	delayFirstNewMessage:stats
field count 1
field mean 1.224548831898
field stddev -nan
field sum 1.224548831898
field sqrsum 1.4995198417028
field min 1.224548831898
field max 1.224548831898
attr interpolationmode  none
attr source  arrival
attr title  "delayFirstNewMessage, stats"
scalar RSUExampleScenario.node[303].nic.phy80211p 	busyTime 	0.00017907207709814
scalar RSUExampleScenario.node[303].nic.mac1609_4 	ReceivedUnicastPackets 	0
scalar RSUExampleScenario.node[303].nic.mac1609_4 	ReceivedBroadcasts 	35
scalar RSUExampleScenario.node[303].nic.mac1609_4 	SentPackets 	35
scalar RSUExampleScenario.node[303].nic.mac1609_4 	SNIRLostPackets 	0
scalar RSUExampleScenario.node[303].nic.mac1609_4 	RXTXLostPackets 	1
scalar RSUExampleScenario.node[303].nic.mac1609_4 	TotalLostPackets 	1
scalar RSUExampleScenario.node[303].nic.mac1609_4 	DroppedPacketsInMac 	0
scalar RSUExampleScenario.node[303].nic.mac1609_4 	TooLittleTime 	0
scalar RSUExampleScenario.node[303].nic.mac1609_4 	TimesIntoBackoff 	35
scalar RSUExampleScenario.node[303].nic.mac1609_4 	SlotsBackoff 	66
scalar RSUExampleScenario.node[303].nic.mac1609_4 	NumInternalContention 	0
scalar RSUExampleScenario.node[303].nic.mac1609_4 	totalBusyTime 	0.009811
scalar RSUExampleScenario.node[303].veinsmobility 	startTime 	2.7
scalar RSUExampleScenario.node[303].veinsmobility 	totalTime 	27.2
scalar RSUExampleScenario.node[303].veinsmobility 	stopTime 	29.996271307117
scalar RSUExampleScenario.node[303].veinsmobility 	minSpeed 	0.25488890484208
scalar RSUExampleScenario.node[303].veinsmobility 	maxSpeed 	13.888476039832
scalar RSUExampleScenario.node[303].veinsmobility 	totalDistance 	314.61058927162
scalar RSUExampleScenario.node[303].veinsmobility 	totalCO2Emission 	72.429275301156
scalar RSUExampleScenario.rsu[0].nic.phy80211p 	busyTime 	0.0037441986989013
scalar RSUExampleScenario.rsu[0].nic.mac1609_4 	ReceivedUnicastPackets 	0
scalar RSUExampleScenario.rsu[0].nic.mac1609_4 	ReceivedBroadcasts 	797
scalar RSUExampleScenario.rsu[0].nic.mac1609_4 	SentPackets 	0
scalar RSUExampleScenario.rsu[0].nic.mac1609_4 	SNIRLostPackets 	10
scalar RSUExampleScenario.rsu[0].nic.mac1609_4 	RXTXLostPackets 	0
scalar RSUExampleScenario.rsu[0].nic.mac1609_4 	TotalLostPackets 	10
scalar RSUExampleScenario.rsu[0].nic.mac1609_4 	DroppedPacketsInMac 	0
scalar RSUExampleScenario.rsu[0].nic.mac1609_4 	TooLittleTime 	0
scalar RSUExampleScenario.rsu[0].nic.mac1609_4 	TimesIntoBackoff 	0
scalar RSUExampleScenario.rsu[0].nic.mac1609_4 	SlotsBackoff 	0
scalar RSUExampleScenario.rsu[0].nic.mac1609_4 	NumInternalContention 	0
scalar RSUExampleScenario.rsu[0].nic.mac1609_4 	totalBusyTime 	0.110456
scalar RSUExampleScenario.rsu[1].nic.phy80211p 	busyTime 	0.001394039931559
scalar RSUExampleScenario.rsu[1].nic.mac1609_4 	ReceivedUnicastPackets 	0
scalar RSUExampleScenario.rsu[1].nic.mac1609_4 	ReceivedBroadcasts 	295
scalar RSUExampleScenario.rsu[1].nic.mac1609_4 	SentPackets 	0
scalar RSUExampleScenario.rsu[1].nic.mac1609_4 	SNIRLostPackets 	4
scalar RSUExampleScenario.rsu[1].nic.mac1609_4 	RXTXLostPackets 	0
scalar RSUExampleScenario.rsu[1].nic.mac1609_4 	TotalLostPackets 	4
scalar RSUExampleScenario.rsu[1].nic.mac1609_4 	DroppedPacketsInMac 	0
scalar RSUExampleScenario.rsu[1].nic.mac1609_4 	TooLittleTime 	0
scalar RSUExampleScenario.rsu[1].nic.mac1609_4 	TimesIntoBackoff 	0
scalar RSUExampleScenario.rsu[1].nic.mac1609_4 	SlotsBackoff 	0
scalar RSUExampleScenario.rsu[1].nic.mac1609_4 	NumInternalContention 	0
scalar RSUExampleScenario.rsu[1].nic.mac1609_4 	totalBusyTime 	0.041024
scalar RSUExampleScenario.rsu[2].nic.phy80211p 	busyTime 	9.5211833856243e-05
scalar RSUExampleScenario.rsu[2].nic.mac1609_4 	ReceivedUnicastPackets 	0
scalar RSUExampleScenario.rsu[2].nic.mac1609_4 	ReceivedBroadcasts 	21
scalar RSUExampleScenario.rsu[2].nic.mac1609_4 	SentPackets 	0
scalar RSUExampleScenario.rsu[2].nic.mac1609_4 	SNIRLostPackets 	0
scalar RSUExampleScenario.rsu[2].nic.mac1609_4 	RXTXLostPackets 	0
scalar RSUExampleScenario.rsu[2].nic.mac1609_4 	TotalLostPackets 	0
scalar RSUExampleScenario.rsu[2].nic.mac1609_4 	DroppedPacketsInMac 	0
scalar RSUExampleScenario.rsu[2].nic.mac1609_4 	TooLittleTime 	0
scalar RSUExampleScenario.rsu[2].nic.mac1609_4 	TimesIntoBackoff 	0
scalar RSUExampleScenario.rsu[2].nic.mac1609_4 	SlotsBackoff 	0
scalar RSUExampleScenario.rsu[2].nic.mac1609_4 	NumInternalContention 	0
scalar RSUExampleScenario.rsu[2].nic.mac1609_4 	totalBusyTime 	0.002856
scalar RSUExampleScenario.rsu[3].nic.phy80211p 	busyTime 	0.0016607397462824
scalar RSUExampleScenario.rsu[3].nic.mac1609_4 	ReceivedUnicastPackets 	0
scalar RSUExampleScenario.rsu[3].nic.mac1609_4 	ReceivedBroadcasts 	352
scalar RSUExampleScenario.rsu[3].nic.mac1609_4 	SentPackets 	0
scalar RSUExampleScenario.rsu[3].nic.mac1609_4 	SNIRLostPackets 	3
scalar RSUExampleScenario.rsu[3].nic.mac1609_4 	RXTXLostPackets 	0
scalar RSUExampleScenario.rsu[3].nic.mac1609_4 	TotalLostPackets 	3
scalar RSUExampleScenario.rsu[3].nic.mac1609_4 	DroppedPacketsInMac 	0
scalar RSUExampleScenario.rsu[3].nic.mac1609_4 	TooLittleTime 	0
scalar RSUExampleScenario.rsu[3].nic.mac1609_4 	TimesIntoBackoff 	0
scalar RSUExampleScenario.rsu[3].nic.mac1609_4 	SlotsBackoff 	0
scalar RSUExampleScenario.rsu[3].nic.mac1609_4 	NumInternalContention 	0
scalar RSUExampleScenario.rsu[3].nic.mac1609_4 	totalBusyTime 	0.049288
scalar RSUExampleScenario.rsu[4].nic.phy80211p 	busyTime 	0.00034404276099315
scalar RSUExampleScenario.rsu[4].nic.mac1609_4 	ReceivedUnicastPackets 	0
scalar RSUExampleScenario.rsu[4].nic.mac1609_4 	ReceivedBroadcasts 	72
scalar RSUExampleScenario.rsu[4].nic.mac1609_4 	SentPackets 	0
scalar RSUExampleScenario.rsu[4].nic.mac1609_4 	SNIRLostPackets 	2
scalar RSUExampleScenario.rsu[4].nic.mac1609_4 	RXTXLostPackets 	0
scalar RSUExampleScenario.rsu[4].nic.mac1609_4 	TotalLostPackets 	2
scalar RSUExampleScenario.rsu[4].nic.mac1609_4 	DroppedPacketsInMac 	0
scalar RSUExampleScenario.rsu[4].nic.mac1609_4 	TooLittleTime 	0
scalar RSUExampleScenario.rsu[4].nic.mac1609_4 	TimesIntoBackoff 	0
scalar RSUExampleScenario.rsu[4].nic.mac1609_4 	SlotsBackoff 	0
scalar RSUExampleScenario.rsu[4].nic.mac1609_4 	NumInternalContention 	0
scalar RSUExampleScenario.rsu[4].nic.mac1609_4 	totalBusyTime 	0.010056
